                                  MODFLOW-2005     
      U.S. GEOLOGICAL SURVEY MODULAR FINITE-DIFFERENCE GROUND-WATER FLOW MODEL
                            VERSION 1.12.00 2/3/2017

 LIST FILE: unconfined.list
                         UNIT    2

 OPENING unconfined.dis
 FILE TYPE:DIS   UNIT   11   STATUS:OLD    
 FORMAT:FORMATTED              ACCESS:SEQUENTIAL          

 OPENING unconfined.bas
 FILE TYPE:BAS6   UNIT   13   STATUS:OLD    
 FORMAT:FORMATTED              ACCESS:SEQUENTIAL          

 OPENING unconfined.lpf
 FILE TYPE:LPF   UNIT   15   STATUS:OLD    
 FORMAT:FORMATTED              ACCESS:SEQUENTIAL          

 OPENING unconfined.ghb
 FILE TYPE:GHB   UNIT   23   STATUS:OLD    
 FORMAT:FORMATTED              ACCESS:SEQUENTIAL          

 OPENING unconfined.wel
 FILE TYPE:WEL   UNIT   20   STATUS:OLD    
 FORMAT:FORMATTED              ACCESS:SEQUENTIAL          

 OPENING unconfined.oc
 FILE TYPE:OC   UNIT   14   STATUS:OLD    
 FORMAT:FORMATTED              ACCESS:SEQUENTIAL          

 OPENING unconfined.pcg
 FILE TYPE:PCG   UNIT   27   STATUS:OLD    
 FORMAT:FORMATTED              ACCESS:SEQUENTIAL          

 OPENING unconfined.hds
 FILE TYPE:DATA(BINARY)   UNIT   51   STATUS:REPLACE
 FORMAT:UNFORMATTED            ACCESS:STREAM              

 BAS -- BASIC PACKAGE, VERSION 7, 5/2/2005 INPUT READ FROM UNIT   13

 MODFLOW was compiled using mixed precision
 Precision of REAL variables:           6
 Precision of DOUBLE PRECISION variables:          15

 DISCRETIZATION INPUT DATA READ FROM UNIT   11
 # DIS package for  MODFLOW-2005, generated by Flopy.
    1 LAYERS        10 ROWS        10 COLUMNS
    3 STRESS PERIOD(S) IN SIMULATION
 MODEL TIME UNIT IS DAYS
 MODEL LENGTH UNIT IS METERS
  Confining bed flag for each layer:
   0

                     DELR =   100.000    

                     DELC =   100.000    

 TOP ELEVATION OF LAYER 1 =   0.00000    

   MODEL LAYER BOTTOM EL. =  -50.0000     FOR LAYER   1


 STRESS PERIOD     LENGTH       TIME STEPS     MULTIPLIER FOR DELT    SS FLAG
 ----------------------------------------------------------------------------
        1         1.000000          1                    1.000         SS
        2         100.0000        100                    1.000         TR
        3         100.0000        100                    1.000         TR

 COMBINED STEADY-STATE AND TRANSIENT SIMULATION




 # BAS6 package for  MODFLOW-2005, generated by Flopy.                           
 THE FREE FORMAT OPTION HAS BEEN SELECTED



                     BOUNDARY ARRAY FOR LAYER   1
 READING ON UNIT   13 WITH FORMAT: (10I10)             

 AQUIFER HEAD WILL BE SET TO  -999.99     AT ALL NO-FLOW NODES (IBOUND=0).



                       INITIAL HEAD FOR LAYER   1
 READING ON UNIT   13 WITH FORMAT: (10E15.6)           
 # OC package for  MODFLOW-2005, generated by Flopy.

 OUTPUT CONTROL IS SPECIFIED ONLY AT TIME STEPS FOR WHICH OUTPUT IS DESIRED
 COMPACT CELL-BY-CELL BUDGET FILES WILL BE WRITTEN
 AUXILIARY DATA WILL BE SAVED IN CELL-BY-CELL BUDGET FILES
 HEAD PRINT FORMAT CODE IS   0    DRAWDOWN PRINT FORMAT CODE IS   0
 HEADS WILL BE SAVED ON UNIT   51    DRAWDOWNS WILL BE SAVED ON UNIT    0

 LPF -- LAYER-PROPERTY FLOW PACKAGE, VERSION 7, 5/2/2005
         INPUT READ FROM UNIT   15
 # LPF package for  MODFLOW-2005, generated by Flopy.
 HEAD AT CELLS THAT CONVERT TO DRY= -1.00000E+30
 No named parameters

   LAYER FLAGS:
 LAYER       LAYTYP        LAYAVG         CHANI        LAYVKA        LAYWET
 ---------------------------------------------------------------------------
    1             1             0     1.000E+00             0             0

   INTERPRETATION OF LAYER FLAGS:
                        INTERBLOCK     HORIZONTAL    DATA IN
         LAYER TYPE   TRANSMISSIVITY   ANISOTROPY   ARRAY VKA   WETTABILITY
 LAYER      (LAYTYP)      (LAYAVG)       (CHANI)      (LAYVKA)      (LAYWET)
 ---------------------------------------------------------------------------
    1   CONVERTIBLE      HARMONIC     1.000E+00    VERTICAL K  NON-WETTABLE

 WETTING CAPABILITY IS NOT ACTIVE IN ANY LAYER

    HYD. COND. ALONG ROWS =   10.0000     FOR LAYER   1

      VERTICAL HYD. COND. =   1.00000     FOR LAYER   1

         SPECIFIC STORAGE =  1.000000E-04 FOR LAYER   1

           SPECIFIC YIELD =  0.100000     FOR LAYER   1

 WEL -- WELL PACKAGE, VERSION 7, 5/2/2005 INPUT READ FROM UNIT   20
 # WEL package for  MODFLOW-2005, generated by Flopy.
 No named parameters
 MAXIMUM OF      1 ACTIVE WELLS AT ONE TIME


     0 Well parameters

 GHB -- GENERAL-HEAD BOUNDARY PACKAGE, VERSION 7, 5/2/2005
         INPUT READ FROM UNIT   23
 # GHB package for  MODFLOW-2005, generated by Flopy.
 No named parameters
 MAXIMUM OF     20 ACTIVE GHB CELLS AT ONE TIME


     0 GHB parameters

 PCG -- CONJUGATE-GRADIENT SOLUTION PACKAGE, VERSION 7, 5/2/2005
 # PCG package for  MODFLOW-2005, generated by Flopy.
 MAXIMUM OF     50 CALLS OF SOLUTION ROUTINE
 MAXIMUM OF     30 INTERNAL ITERATIONS PER CALL TO SOLUTION ROUTINE
 MATRIX PRECONDITIONING TYPE :    1



                                    SOLUTION BY THE CONJUGATE-GRADIENT METHOD
                                   -------------------------------------------
                    MAXIMUM NUMBER OF CALLS TO PCG ROUTINE =       50
                        MAXIMUM ITERATIONS PER CALL TO PCG =       30
                               MATRIX PRECONDITIONING TYPE =        1
        RELAXATION FACTOR (ONLY USED WITH PRECOND. TYPE 1) =    0.10000E+01
 PARAMETER OF POLYNOMIAL PRECOND. = 2 (2) OR IS CALCULATED :        0
                         HEAD CHANGE CRITERION FOR CLOSURE =    0.10000E-04
                     RESIDUAL CHANGE CRITERION FOR CLOSURE =    0.10000E-04
            PCG HEAD AND RESIDUAL CHANGE PRINTOUT INTERVAL =      999
     PRINTING FROM SOLVER IS LIMITED(1) OR SUPPRESSED (>1) =        3
                            STEADY-STATE DAMPING PARAMETER =    0.10000E+01
                               TRANSIENT DAMPING PARAMETER =    0.10000E+01
1
                            STRESS PERIOD NO.    1, LENGTH =   1.000000    
                            -----------------------------------------------

                              NUMBER OF TIME STEPS =     1

                               MULTIPLIER FOR DELT =     1.000

                            INITIAL TIME STEP SIZE =   1.000000    

 WELL NO.  LAYER   ROW   COL   STRESS RATE         
 --------------------------------------------------
      1      1      5      5       0.000    

      1 WELL 

 BOUND. NO. LAYER   ROW   COL     STAGE      CONDUCTANCE         
 ----------------------------------------------------------------
      1      1      1      1       10.00          0.6000E+05
      2      1      1     10       10.00          0.6000E+05
      3      1      2      1       10.00          0.6000E+05
      4      1      2     10       10.00          0.6000E+05
      5      1      3      1       10.00          0.6000E+05
      6      1      3     10       10.00          0.6000E+05
      7      1      4      1       10.00          0.6000E+05
      8      1      4     10       10.00          0.6000E+05
      9      1      5      1       10.00          0.6000E+05
     10      1      5     10       10.00          0.6000E+05
     11      1      6      1       10.00          0.6000E+05
     12      1      6     10       10.00          0.6000E+05
     13      1      7      1       10.00          0.6000E+05
     14      1      7     10       10.00          0.6000E+05
     15      1      8      1       10.00          0.6000E+05
     16      1      8     10       10.00          0.6000E+05
     17      1      9      1       10.00          0.6000E+05
     18      1      9     10       10.00          0.6000E+05
     19      1     10      1       10.00          0.6000E+05
     20      1     10     10       10.00          0.6000E+05

     20 GHB CELLS

 SOLVING FOR HEAD 

 OUTPUT CONTROL FOR STRESS PERIOD    1   TIME STEP    1
    PRINT HEAD FOR ALL LAYERS
    SAVE HEAD FOR ALL LAYERS
    PRINT BUDGET
    SAVE BUDGET
1
              HEAD IN LAYER   1 AT END OF TIME STEP   1 IN STRESS PERIOD    1
  ---------------------------------------------------------------------------

            1           2           3           4           5           6           7           8           9          10
 ........................................................................................................................
   1    10.00       10.00       10.00       10.00       10.00       10.00       10.00       10.00       10.00       10.00    
   2    10.00       10.00       10.00       10.00       10.00       10.00       10.00       10.00       10.00       10.00    
   3    10.00       10.00       10.00       10.00       10.00       10.00       10.00       10.00       10.00       10.00    
   4    10.00       10.00       10.00       10.00       10.00       10.00       10.00       10.00       10.00       10.00    
   5    10.00       10.00       10.00       10.00       10.00       10.00       10.00       10.00       10.00       10.00    
   6    10.00       10.00       10.00       10.00       10.00       10.00       10.00       10.00       10.00       10.00    
   7    10.00       10.00       10.00       10.00       10.00       10.00       10.00       10.00       10.00       10.00    
   8    10.00       10.00       10.00       10.00       10.00       10.00       10.00       10.00       10.00       10.00    
   9    10.00       10.00       10.00       10.00       10.00       10.00       10.00       10.00       10.00       10.00    
  10    10.00       10.00       10.00       10.00       10.00       10.00       10.00       10.00       10.00       10.00    

 HEAD WILL BE SAVED ON UNIT   51 AT END OF TIME STEP    1, STRESS PERIOD    1
1
  VOLUMETRIC BUDGET FOR ENTIRE MODEL AT END OF TIME STEP    1, STRESS PERIOD   1
  ------------------------------------------------------------------------------

     CUMULATIVE VOLUMES      L**3       RATES FOR THIS TIME STEP      L**3/T
     ------------------                 ------------------------

           IN:                                      IN:
           ---                                      ---
             STORAGE =           0.0000               STORAGE =           0.0000
       CONSTANT HEAD =           0.0000         CONSTANT HEAD =           0.0000
               WELLS =           0.0000                 WELLS =           0.0000
     HEAD DEP BOUNDS =           0.0000       HEAD DEP BOUNDS =           0.0000

            TOTAL IN =           0.0000              TOTAL IN =           0.0000

          OUT:                                     OUT:
          ----                                     ----
             STORAGE =           0.0000               STORAGE =           0.0000
       CONSTANT HEAD =           0.0000         CONSTANT HEAD =           0.0000
               WELLS =           0.0000                 WELLS =           0.0000
     HEAD DEP BOUNDS =           0.0000       HEAD DEP BOUNDS =           0.0000

           TOTAL OUT =           0.0000             TOTAL OUT =           0.0000

            IN - OUT =           0.0000              IN - OUT =           0.0000

 PERCENT DISCREPANCY =           0.00     PERCENT DISCREPANCY =           0.00






         TIME SUMMARY AT END OF TIME STEP    1 IN STRESS PERIOD    1
                    SECONDS     MINUTES      HOURS       DAYS        YEARS
                    -----------------------------------------------------------
   TIME STEP LENGTH  86400.      1440.0      24.000      1.0000     2.73785E-03
 STRESS PERIOD TIME  86400.      1440.0      24.000      1.0000     2.73785E-03
         TOTAL TIME  86400.      1440.0      24.000      1.0000     2.73785E-03
1
1
                            STRESS PERIOD NO.    2, LENGTH =   100.0000    
                            -----------------------------------------------

                              NUMBER OF TIME STEPS =   100

                               MULTIPLIER FOR DELT =     1.000

                            INITIAL TIME STEP SIZE =   1.000000    

 WELL NO.  LAYER   ROW   COL   STRESS RATE         
 --------------------------------------------------
      1      1      5      5       0.000    

      1 WELL 

 BOUND. NO. LAYER   ROW   COL     STAGE      CONDUCTANCE         
 ----------------------------------------------------------------
      1      1      1      1       10.00          0.6000E+05
      2      1      1     10       0.000          0.5000E+05
      3      1      2      1       10.00          0.6000E+05
      4      1      2     10       0.000          0.5000E+05
      5      1      3      1       10.00          0.6000E+05
      6      1      3     10       0.000          0.5000E+05
      7      1      4      1       10.00          0.6000E+05
      8      1      4     10       0.000          0.5000E+05
      9      1      5      1       10.00          0.6000E+05
     10      1      5     10       0.000          0.5000E+05
     11      1      6      1       10.00          0.6000E+05
     12      1      6     10       0.000          0.5000E+05
     13      1      7      1       10.00          0.6000E+05
     14      1      7     10       0.000          0.5000E+05
     15      1      8      1       10.00          0.6000E+05
     16      1      8     10       0.000          0.5000E+05
     17      1      9      1       10.00          0.6000E+05
     18      1      9     10       0.000          0.5000E+05
     19      1     10      1       10.00          0.6000E+05
     20      1     10     10       0.000          0.5000E+05

     20 GHB CELLS

 SOLVING FOR HEAD 

 OUTPUT CONTROL FOR STRESS PERIOD    2   TIME STEP    1
    PRINT HEAD FOR ALL LAYERS
    SAVE HEAD FOR ALL LAYERS
    PRINT BUDGET
    SAVE BUDGET
1
              HEAD IN LAYER   1 AT END OF TIME STEP   1 IN STRESS PERIOD    2
  ---------------------------------------------------------------------------

            1           2           3           4           5           6           7           8           9          10
 ........................................................................................................................
   1    9.997       9.622       9.208       8.716       8.096       7.284       6.202       4.739       2.751      3.7098E-02
   2    9.997       9.622       9.208       8.716       8.096       7.284       6.202       4.739       2.751      3.7098E-02
   3    9.997       9.622       9.208       8.716       8.096       7.284       6.202       4.739       2.751      3.7098E-02
   4    9.997       9.622       9.208       8.716       8.096       7.284       6.202       4.739       2.751      3.7098E-02
   5    9.997       9.622       9.208       8.716       8.096       7.284       6.202       4.739       2.751      3.7098E-02
   6    9.997       9.622       9.208       8.716       8.096       7.284       6.202       4.739       2.751      3.7098E-02
   7    9.997       9.622       9.208       8.716       8.096       7.284       6.202       4.739       2.751      3.7098E-02
   8    9.997       9.622       9.208       8.716       8.096       7.284       6.202       4.739       2.751      3.7098E-02
   9    9.997       9.622       9.208       8.716       8.096       7.284       6.202       4.739       2.751      3.7098E-02
  10    9.997       9.622       9.208       8.716       8.096       7.284       6.202       4.739       2.751      3.7098E-02

 HEAD WILL BE SAVED ON UNIT   51 AT END OF TIME STEP    1, STRESS PERIOD    2
1
  VOLUMETRIC BUDGET FOR ENTIRE MODEL AT END OF TIME STEP    1, STRESS PERIOD   2
  ------------------------------------------------------------------------------

     CUMULATIVE VOLUMES      L**3       RATES FOR THIS TIME STEP      L**3/T
     ------------------                 ------------------------

           IN:                                      IN:
           ---                                      ---
             STORAGE =       16674.1855               STORAGE =       16674.1855
       CONSTANT HEAD =           0.0000         CONSTANT HEAD =           0.0000
               WELLS =           0.0000                 WELLS =           0.0000
     HEAD DEP BOUNDS =        1874.8799       HEAD DEP BOUNDS =        1874.8799

            TOTAL IN =       18549.0664              TOTAL IN =       18549.0664

          OUT:                                     OUT:
          ----                                     ----
             STORAGE =           0.0000               STORAGE =           0.0000
       CONSTANT HEAD =           0.0000         CONSTANT HEAD =           0.0000
               WELLS =           0.0000                 WELLS =           0.0000
     HEAD DEP BOUNDS =       18549.0664       HEAD DEP BOUNDS =       18549.0664

           TOTAL OUT =       18549.0664             TOTAL OUT =       18549.0664

            IN - OUT =           0.0000              IN - OUT =           0.0000

 PERCENT DISCREPANCY =           0.00     PERCENT DISCREPANCY =           0.00






         TIME SUMMARY AT END OF TIME STEP    1 IN STRESS PERIOD    2
                    SECONDS     MINUTES      HOURS       DAYS        YEARS
                    -----------------------------------------------------------
   TIME STEP LENGTH  86400.      1440.0      24.000      1.0000     2.73785E-03
 STRESS PERIOD TIME  86400.      1440.0      24.000      1.0000     2.73785E-03
         TOTAL TIME 1.72800E+05  2880.0      48.000      2.0000     5.47570E-03
1

 SOLVING FOR HEAD 

 OUTPUT CONTROL FOR STRESS PERIOD    2   TIME STEP    2
    PRINT HEAD FOR ALL LAYERS
    SAVE HEAD FOR ALL LAYERS
    PRINT BUDGET
    SAVE BUDGET
1
              HEAD IN LAYER   1 AT END OF TIME STEP   2 IN STRESS PERIOD    2
  ---------------------------------------------------------------------------

            1           2           3           4           5           6           7           8           9          10
 ........................................................................................................................
   1    9.994       9.279       8.529       7.712       6.794       5.745       4.543       3.175       1.651      1.6365E-02
   2    9.994       9.279       8.529       7.712       6.794       5.745       4.543       3.175       1.651      1.6365E-02
   3    9.994       9.279       8.529       7.712       6.794       5.745       4.543       3.175       1.651      1.6365E-02
   4    9.994       9.279       8.529       7.712       6.794       5.745       4.543       3.175       1.651      1.6365E-02
   5    9.994       9.279       8.529       7.712       6.794       5.745       4.543       3.175       1.651      1.6365E-02
   6    9.994       9.279       8.529       7.712       6.794       5.745       4.543       3.175       1.651      1.6365E-02
   7    9.994       9.279       8.529       7.712       6.794       5.745       4.543       3.175       1.651      1.6365E-02
   8    9.994       9.279       8.529       7.712       6.794       5.745       4.543       3.175       1.651      1.6365E-02
   9    9.994       9.279       8.529       7.712       6.794       5.745       4.543       3.175       1.651      1.6365E-02
  10    9.994       9.279       8.529       7.712       6.794       5.745       4.543       3.175       1.651      1.6365E-02

 HEAD WILL BE SAVED ON UNIT   51 AT END OF TIME STEP    2, STRESS PERIOD    2
1
  VOLUMETRIC BUDGET FOR ENTIRE MODEL AT END OF TIME STEP    2, STRESS PERIOD   2
  ------------------------------------------------------------------------------

     CUMULATIVE VOLUMES      L**3       RATES FOR THIS TIME STEP      L**3/T
     ------------------                 ------------------------

           IN:                                      IN:
           ---                                      ---
             STORAGE =       21281.2266               STORAGE =        4607.0415
       CONSTANT HEAD =           0.0000         CONSTANT HEAD =           0.0000
               WELLS =           0.0000                 WELLS =           0.0000
     HEAD DEP BOUNDS =        5449.8223       HEAD DEP BOUNDS =        3574.9421

            TOTAL IN =       26731.0488              TOTAL IN =        8181.9834

          OUT:                                     OUT:
          ----                                     ----
             STORAGE =           0.0000               STORAGE =           0.0000
       CONSTANT HEAD =           0.0000         CONSTANT HEAD =           0.0000
               WELLS =           0.0000                 WELLS =           0.0000
     HEAD DEP BOUNDS =       26731.3613       HEAD DEP BOUNDS =        8182.2954

           TOTAL OUT =       26731.3613             TOTAL OUT =        8182.2954

            IN - OUT =          -0.3125              IN - OUT =          -0.3120

 PERCENT DISCREPANCY =          -0.00     PERCENT DISCREPANCY =          -0.00






         TIME SUMMARY AT END OF TIME STEP    2 IN STRESS PERIOD    2
                    SECONDS     MINUTES      HOURS       DAYS        YEARS
                    -----------------------------------------------------------
   TIME STEP LENGTH  86400.      1440.0      24.000      1.0000     2.73785E-03
 STRESS PERIOD TIME 1.72800E+05  2880.0      48.000      2.0000     5.47570E-03
         TOTAL TIME 2.59200E+05  4320.0      72.000      3.0000     8.21355E-03
1

 SOLVING FOR HEAD 

 OUTPUT CONTROL FOR STRESS PERIOD    2   TIME STEP    3
    PRINT HEAD FOR ALL LAYERS
    SAVE HEAD FOR ALL LAYERS
    PRINT BUDGET
    SAVE BUDGET
1
              HEAD IN LAYER   1 AT END OF TIME STEP   3 IN STRESS PERIOD    2
  ---------------------------------------------------------------------------

            1           2           3           4           5           6           7           8           9          10
 ........................................................................................................................
   1    9.992       9.075       8.138       7.162       6.131       5.033       3.864       2.628       1.336      1.3232E-02
   2    9.992       9.075       8.138       7.162       6.131       5.033       3.864       2.628       1.336      1.3232E-02
   3    9.992       9.075       8.138       7.162       6.131       5.033       3.864       2.628       1.336      1.3232E-02
   4    9.992       9.075       8.138       7.162       6.131       5.033       3.864       2.628       1.336      1.3232E-02
   5    9.992       9.075       8.138       7.162       6.131       5.033       3.864       2.628       1.336      1.3232E-02
   6    9.992       9.075       8.138       7.162       6.131       5.033       3.864       2.628       1.336      1.3232E-02
   7    9.992       9.075       8.138       7.162       6.131       5.033       3.864       2.628       1.336      1.3232E-02
   8    9.992       9.075       8.138       7.162       6.131       5.033       3.864       2.628       1.336      1.3232E-02
   9    9.992       9.075       8.138       7.162       6.131       5.033       3.864       2.628       1.336      1.3232E-02
  10    9.992       9.075       8.138       7.162       6.131       5.033       3.864       2.628       1.336      1.3232E-02

 HEAD WILL BE SAVED ON UNIT   51 AT END OF TIME STEP    3, STRESS PERIOD    2
1
  VOLUMETRIC BUDGET FOR ENTIRE MODEL AT END OF TIME STEP    3, STRESS PERIOD   2
  ------------------------------------------------------------------------------

     CUMULATIVE VOLUMES      L**3       RATES FOR THIS TIME STEP      L**3/T
     ------------------                 ------------------------

           IN:                                      IN:
           ---                                      ---
             STORAGE =       23313.6016               STORAGE =        2032.3756
       CONSTANT HEAD =           0.0000         CONSTANT HEAD =           0.0000
               WELLS =           0.0000                 WELLS =           0.0000
     HEAD DEP BOUNDS =       10033.6650       HEAD DEP BOUNDS =        4583.8428

            TOTAL IN =       33347.2656              TOTAL IN =        6616.2183

          OUT:                                     OUT:
          ----                                     ----
             STORAGE =           0.0000               STORAGE =           0.0000
       CONSTANT HEAD =           0.0000         CONSTANT HEAD =           0.0000
               WELLS =           0.0000                 WELLS =           0.0000
     HEAD DEP BOUNDS =       33347.4336       HEAD DEP BOUNDS =        6616.0723

           TOTAL OUT =       33347.4336             TOTAL OUT =        6616.0723

            IN - OUT =          -0.1680              IN - OUT =           0.1460

 PERCENT DISCREPANCY =          -0.00     PERCENT DISCREPANCY =           0.00






         TIME SUMMARY AT END OF TIME STEP    3 IN STRESS PERIOD    2
                    SECONDS     MINUTES      HOURS       DAYS        YEARS
                    -----------------------------------------------------------
   TIME STEP LENGTH  86400.      1440.0      24.000      1.0000     2.73785E-03
 STRESS PERIOD TIME 2.59200E+05  4320.0      72.000      3.0000     8.21355E-03
         TOTAL TIME 3.45600E+05  5760.0      96.000      4.0000     1.09514E-02
1

 SOLVING FOR HEAD 

 OUTPUT CONTROL FOR STRESS PERIOD    2   TIME STEP    4
    PRINT HEAD FOR ALL LAYERS
    SAVE HEAD FOR ALL LAYERS
    PRINT BUDGET
    SAVE BUDGET
1
              HEAD IN LAYER   1 AT END OF TIME STEP   4 IN STRESS PERIOD    2
  ---------------------------------------------------------------------------

            1           2           3           4           5           6           7           8           9          10
 ........................................................................................................................
   1    9.992       8.972       7.943       6.894       5.819       4.712       3.573       2.405       1.215      1.2026E-02
   2    9.992       8.972       7.943       6.894       5.819       4.712       3.573       2.405       1.215      1.2026E-02
   3    9.992       8.972       7.943       6.894       5.819       4.712       3.573       2.405       1.215      1.2026E-02
   4    9.992       8.972       7.943       6.894       5.819       4.712       3.573       2.405       1.215      1.2026E-02
   5    9.992       8.972       7.943       6.894       5.819       4.712       3.573       2.405       1.215      1.2026E-02
   6    9.992       8.972       7.943       6.894       5.819       4.712       3.573       2.405       1.215      1.2026E-02
   7    9.992       8.972       7.943       6.894       5.819       4.712       3.573       2.405       1.215      1.2026E-02
   8    9.992       8.972       7.943       6.894       5.819       4.712       3.573       2.405       1.215      1.2026E-02
   9    9.992       8.972       7.943       6.894       5.819       4.712       3.573       2.405       1.215      1.2026E-02
  10    9.992       8.972       7.943       6.894       5.819       4.712       3.573       2.405       1.215      1.2026E-02

 HEAD WILL BE SAVED ON UNIT   51 AT END OF TIME STEP    4, STRESS PERIOD    2
1
  VOLUMETRIC BUDGET FOR ENTIRE MODEL AT END OF TIME STEP    4, STRESS PERIOD   2
  ------------------------------------------------------------------------------

     CUMULATIVE VOLUMES      L**3       RATES FOR THIS TIME STEP      L**3/T
     ------------------                 ------------------------

           IN:                                      IN:
           ---                                      ---
             STORAGE =       24231.8945               STORAGE =         918.2937
       CONSTANT HEAD =           0.0000         CONSTANT HEAD =           0.0000
               WELLS =           0.0000                 WELLS =           0.0000
     HEAD DEP BOUNDS =       15128.3838       HEAD DEP BOUNDS =        5094.7188

            TOTAL IN =       39360.2773              TOTAL IN =        6013.0127

          OUT:                                     OUT:
          ----                                     ----
             STORAGE =           0.0000               STORAGE =           0.0000
       CONSTANT HEAD =           0.0000         CONSTANT HEAD =           0.0000
               WELLS =           0.0000                 WELLS =           0.0000
     HEAD DEP BOUNDS =       39360.5156       HEAD DEP BOUNDS =        6013.0825

           TOTAL OUT =       39360.5156             TOTAL OUT =        6013.0825

            IN - OUT =          -0.2383              IN - OUT =      -6.9824E-02

 PERCENT DISCREPANCY =          -0.00     PERCENT DISCREPANCY =          -0.00






         TIME SUMMARY AT END OF TIME STEP    4 IN STRESS PERIOD    2
                    SECONDS     MINUTES      HOURS       DAYS        YEARS
                    -----------------------------------------------------------
   TIME STEP LENGTH  86400.      1440.0      24.000      1.0000     2.73785E-03
 STRESS PERIOD TIME 3.45600E+05  5760.0      96.000      4.0000     1.09514E-02
         TOTAL TIME 4.32000E+05  7200.0      120.00      5.0000     1.36893E-02
1

 SOLVING FOR HEAD 

 OUTPUT CONTROL FOR STRESS PERIOD    2   TIME STEP    5
    PRINT HEAD FOR ALL LAYERS
    SAVE HEAD FOR ALL LAYERS
    PRINT BUDGET
    SAVE BUDGET
1
              HEAD IN LAYER   1 AT END OF TIME STEP   5 IN STRESS PERIOD    2
  ---------------------------------------------------------------------------

            1           2           3           4           5           6           7           8           9          10
 ........................................................................................................................
   1    9.991       8.924       7.851       6.769       5.675       4.567       3.444       2.308       1.162      1.1509E-02
   2    9.991       8.924       7.851       6.769       5.675       4.567       3.444       2.308       1.162      1.1509E-02
   3    9.991       8.924       7.851       6.769       5.675       4.567       3.444       2.308       1.162      1.1509E-02
   4    9.991       8.924       7.851       6.769       5.675       4.567       3.444       2.308       1.162      1.1509E-02
   5    9.991       8.924       7.851       6.769       5.675       4.567       3.444       2.308       1.162      1.1509E-02
   6    9.991       8.924       7.851       6.769       5.675       4.567       3.444       2.308       1.162      1.1509E-02
   7    9.991       8.924       7.851       6.769       5.675       4.567       3.444       2.308       1.162      1.1509E-02
   8    9.991       8.924       7.851       6.769       5.675       4.567       3.444       2.308       1.162      1.1509E-02
   9    9.991       8.924       7.851       6.769       5.675       4.567       3.444       2.308       1.162      1.1509E-02
  10    9.991       8.924       7.851       6.769       5.675       4.567       3.444       2.308       1.162      1.1509E-02

 HEAD WILL BE SAVED ON UNIT   51 AT END OF TIME STEP    5, STRESS PERIOD    2
1
  VOLUMETRIC BUDGET FOR ENTIRE MODEL AT END OF TIME STEP    5, STRESS PERIOD   2
  ------------------------------------------------------------------------------

     CUMULATIVE VOLUMES      L**3       RATES FOR THIS TIME STEP      L**3/T
     ------------------                 ------------------------

           IN:                                      IN:
           ---                                      ---
             STORAGE =       24648.6016               STORAGE =         416.7075
       CONSTANT HEAD =           0.0000         CONSTANT HEAD =           0.0000
               WELLS =           0.0000                 WELLS =           0.0000
     HEAD DEP BOUNDS =       20466.1270       HEAD DEP BOUNDS =        5337.7427

            TOTAL IN =       45114.7266              TOTAL IN =        5754.4502

          OUT:                                     OUT:
          ----                                     ----
             STORAGE =           0.0000               STORAGE =           0.0000
       CONSTANT HEAD =           0.0000         CONSTANT HEAD =           0.0000
               WELLS =           0.0000                 WELLS =           0.0000
     HEAD DEP BOUNDS =       45114.8359       HEAD DEP BOUNDS =        5754.3213

           TOTAL OUT =       45114.8359             TOTAL OUT =        5754.3213

            IN - OUT =          -0.1094              IN - OUT =           0.1289

 PERCENT DISCREPANCY =          -0.00     PERCENT DISCREPANCY =           0.00






         TIME SUMMARY AT END OF TIME STEP    5 IN STRESS PERIOD    2
                    SECONDS     MINUTES      HOURS       DAYS        YEARS
                    -----------------------------------------------------------
   TIME STEP LENGTH  86400.      1440.0      24.000      1.0000     2.73785E-03
 STRESS PERIOD TIME 4.32000E+05  7200.0      120.00      5.0000     1.36893E-02
         TOTAL TIME 5.18400E+05  8640.0      144.00      6.0000     1.64271E-02
1

 SOLVING FOR HEAD 

 OUTPUT CONTROL FOR STRESS PERIOD    2   TIME STEP    6
    PRINT HEAD FOR ALL LAYERS
    SAVE HEAD FOR ALL LAYERS
    PRINT BUDGET
    SAVE BUDGET
1
              HEAD IN LAYER   1 AT END OF TIME STEP   6 IN STRESS PERIOD    2
  ---------------------------------------------------------------------------

            1           2           3           4           5           6           7           8           9          10
 ........................................................................................................................
   1    9.991       8.901       7.809       6.712       5.610       4.501       3.386       2.265       1.139      1.1278E-02
   2    9.991       8.901       7.809       6.712       5.610       4.501       3.386       2.265       1.139      1.1278E-02
   3    9.991       8.901       7.809       6.712       5.610       4.501       3.386       2.265       1.139      1.1278E-02
   4    9.991       8.901       7.809       6.712       5.610       4.501       3.386       2.265       1.139      1.1278E-02
   5    9.991       8.901       7.809       6.712       5.610       4.501       3.386       2.265       1.139      1.1278E-02
   6    9.991       8.901       7.809       6.712       5.610       4.501       3.386       2.265       1.139      1.1278E-02
   7    9.991       8.901       7.809       6.712       5.610       4.501       3.386       2.265       1.139      1.1278E-02
   8    9.991       8.901       7.809       6.712       5.610       4.501       3.386       2.265       1.139      1.1278E-02
   9    9.991       8.901       7.809       6.712       5.610       4.501       3.386       2.265       1.139      1.1278E-02
  10    9.991       8.901       7.809       6.712       5.610       4.501       3.386       2.265       1.139      1.1278E-02

 HEAD WILL BE SAVED ON UNIT   51 AT END OF TIME STEP    6, STRESS PERIOD    2
1
  VOLUMETRIC BUDGET FOR ENTIRE MODEL AT END OF TIME STEP    6, STRESS PERIOD   2
  ------------------------------------------------------------------------------

     CUMULATIVE VOLUMES      L**3       RATES FOR THIS TIME STEP      L**3/T
     ------------------                 ------------------------

           IN:                                      IN:
           ---                                      ---
             STORAGE =       24837.8555               STORAGE =         189.2534
       CONSTANT HEAD =           0.0000         CONSTANT HEAD =           0.0000
               WELLS =           0.0000                 WELLS =           0.0000
     HEAD DEP BOUNDS =       25915.9922       HEAD DEP BOUNDS =        5449.8657

            TOTAL IN =       50753.8477              TOTAL IN =        5639.1191

          OUT:                                     OUT:
          ----                                     ----
             STORAGE =           0.0000               STORAGE =           0.0000
       CONSTANT HEAD =           0.0000         CONSTANT HEAD =           0.0000
               WELLS =           0.0000                 WELLS =           0.0000
     HEAD DEP BOUNDS =       50754.0273       HEAD DEP BOUNDS =        5639.1919

           TOTAL OUT =       50754.0273             TOTAL OUT =        5639.1919

            IN - OUT =          -0.1797              IN - OUT =      -7.2754E-02

 PERCENT DISCREPANCY =          -0.00     PERCENT DISCREPANCY =          -0.00






         TIME SUMMARY AT END OF TIME STEP    6 IN STRESS PERIOD    2
                    SECONDS     MINUTES      HOURS       DAYS        YEARS
                    -----------------------------------------------------------
   TIME STEP LENGTH  86400.      1440.0      24.000      1.0000     2.73785E-03
 STRESS PERIOD TIME 5.18400E+05  8640.0      144.00      6.0000     1.64271E-02
         TOTAL TIME 6.04800E+05  10080.      168.00      7.0000     1.91650E-02
1

 SOLVING FOR HEAD 

 OUTPUT CONTROL FOR STRESS PERIOD    2   TIME STEP    7
    PRINT HEAD FOR ALL LAYERS
    SAVE HEAD FOR ALL LAYERS
    PRINT BUDGET
    SAVE BUDGET
1
              HEAD IN LAYER   1 AT END OF TIME STEP   7 IN STRESS PERIOD    2
  ---------------------------------------------------------------------------

            1           2           3           4           5           6           7           8           9          10
 ........................................................................................................................
   1    9.991       8.891       7.789       6.686       5.580       4.471       3.359       2.245       1.129      1.1175E-02
   2    9.991       8.891       7.789       6.686       5.580       4.471       3.359       2.245       1.129      1.1175E-02
   3    9.991       8.891       7.789       6.686       5.580       4.471       3.359       2.245       1.129      1.1175E-02
   4    9.991       8.891       7.789       6.686       5.580       4.471       3.359       2.245       1.129      1.1175E-02
   5    9.991       8.891       7.789       6.686       5.580       4.471       3.359       2.245       1.129      1.1175E-02
   6    9.991       8.891       7.789       6.686       5.580       4.471       3.359       2.245       1.129      1.1175E-02
   7    9.991       8.891       7.789       6.686       5.580       4.471       3.359       2.245       1.129      1.1175E-02
   8    9.991       8.891       7.789       6.686       5.580       4.471       3.359       2.245       1.129      1.1175E-02
   9    9.991       8.891       7.789       6.686       5.580       4.471       3.359       2.245       1.129      1.1175E-02
  10    9.991       8.891       7.789       6.686       5.580       4.471       3.359       2.245       1.129      1.1175E-02

 HEAD WILL BE SAVED ON UNIT   51 AT END OF TIME STEP    7, STRESS PERIOD    2
1
  VOLUMETRIC BUDGET FOR ENTIRE MODEL AT END OF TIME STEP    7, STRESS PERIOD   2
  ------------------------------------------------------------------------------

     CUMULATIVE VOLUMES      L**3       RATES FOR THIS TIME STEP      L**3/T
     ------------------                 ------------------------

           IN:                                      IN:
           ---                                      ---
             STORAGE =       24923.8223               STORAGE =          85.9660
       CONSTANT HEAD =           0.0000         CONSTANT HEAD =           0.0000
               WELLS =           0.0000                 WELLS =           0.0000
     HEAD DEP BOUNDS =       31417.1602       HEAD DEP BOUNDS =        5501.1670

            TOTAL IN =       56340.9844              TOTAL IN =        5587.1328

          OUT:                                     OUT:
          ----                                     ----
             STORAGE =           0.0000               STORAGE =           0.0000
       CONSTANT HEAD =           0.0000         CONSTANT HEAD =           0.0000
               WELLS =           0.0000                 WELLS =           0.0000
     HEAD DEP BOUNDS =       56341.3281       HEAD DEP BOUNDS =        5587.2998

           TOTAL OUT =       56341.3281             TOTAL OUT =        5587.2998

            IN - OUT =          -0.3438              IN - OUT =          -0.1670

 PERCENT DISCREPANCY =          -0.00     PERCENT DISCREPANCY =          -0.00






         TIME SUMMARY AT END OF TIME STEP    7 IN STRESS PERIOD    2
                    SECONDS     MINUTES      HOURS       DAYS        YEARS
                    -----------------------------------------------------------
   TIME STEP LENGTH  86400.      1440.0      24.000      1.0000     2.73785E-03
 STRESS PERIOD TIME 6.04800E+05  10080.      168.00      7.0000     1.91650E-02
         TOTAL TIME 6.91200E+05  11520.      192.00      8.0000     2.19028E-02
1

 SOLVING FOR HEAD 

 OUTPUT CONTROL FOR STRESS PERIOD    2   TIME STEP    8
    PRINT HEAD FOR ALL LAYERS
    SAVE HEAD FOR ALL LAYERS
    PRINT BUDGET
    SAVE BUDGET
1
              HEAD IN LAYER   1 AT END OF TIME STEP   8 IN STRESS PERIOD    2
  ---------------------------------------------------------------------------

            1           2           3           4           5           6           7           8           9          10
 ........................................................................................................................
   1    9.991       8.886       7.780       6.674       5.567       4.458       3.348       2.236       1.124      1.1128E-02
   2    9.991       8.886       7.780       6.674       5.567       4.458       3.348       2.236       1.124      1.1128E-02
   3    9.991       8.886       7.780       6.674       5.567       4.458       3.348       2.236       1.124      1.1128E-02
   4    9.991       8.886       7.780       6.674       5.567       4.458       3.348       2.236       1.124      1.1128E-02
   5    9.991       8.886       7.780       6.674       5.567       4.458       3.348       2.236       1.124      1.1128E-02
   6    9.991       8.886       7.780       6.674       5.567       4.458       3.348       2.236       1.124      1.1128E-02
   7    9.991       8.886       7.780       6.674       5.567       4.458       3.348       2.236       1.124      1.1128E-02
   8    9.991       8.886       7.780       6.674       5.567       4.458       3.348       2.236       1.124      1.1128E-02
   9    9.991       8.886       7.780       6.674       5.567       4.458       3.348       2.236       1.124      1.1128E-02
  10    9.991       8.886       7.780       6.674       5.567       4.458       3.348       2.236       1.124      1.1128E-02

 HEAD WILL BE SAVED ON UNIT   51 AT END OF TIME STEP    8, STRESS PERIOD    2
1
  VOLUMETRIC BUDGET FOR ENTIRE MODEL AT END OF TIME STEP    8, STRESS PERIOD   2
  ------------------------------------------------------------------------------

     CUMULATIVE VOLUMES      L**3       RATES FOR THIS TIME STEP      L**3/T
     ------------------                 ------------------------

           IN:                                      IN:
           ---                                      ---
             STORAGE =       24962.8730               STORAGE =          39.0508
       CONSTANT HEAD =           0.0000         CONSTANT HEAD =           0.0000
               WELLS =           0.0000                 WELLS =           0.0000
     HEAD DEP BOUNDS =       36941.6992       HEAD DEP BOUNDS =        5524.5376

            TOTAL IN =       61904.5703              TOTAL IN =        5563.5884

          OUT:                                     OUT:
          ----                                     ----
             STORAGE =           0.0000               STORAGE =           0.0000
       CONSTANT HEAD =           0.0000         CONSTANT HEAD =           0.0000
               WELLS =           0.0000                 WELLS =           0.0000
     HEAD DEP BOUNDS =       61905.1250       HEAD DEP BOUNDS =        5563.7974

           TOTAL OUT =       61905.1250             TOTAL OUT =        5563.7974

            IN - OUT =          -0.5547              IN - OUT =          -0.2090

 PERCENT DISCREPANCY =          -0.00     PERCENT DISCREPANCY =          -0.00






         TIME SUMMARY AT END OF TIME STEP    8 IN STRESS PERIOD    2
                    SECONDS     MINUTES      HOURS       DAYS        YEARS
                    -----------------------------------------------------------
   TIME STEP LENGTH  86400.      1440.0      24.000      1.0000     2.73785E-03
 STRESS PERIOD TIME 6.91200E+05  11520.      192.00      8.0000     2.19028E-02
         TOTAL TIME 7.77600E+05  12960.      216.00      9.0000     2.46407E-02
1

 SOLVING FOR HEAD 

 OUTPUT CONTROL FOR STRESS PERIOD    2   TIME STEP    9
    PRINT HEAD FOR ALL LAYERS
    SAVE HEAD FOR ALL LAYERS
    PRINT BUDGET
    SAVE BUDGET
1
              HEAD IN LAYER   1 AT END OF TIME STEP   9 IN STRESS PERIOD    2
  ---------------------------------------------------------------------------

            1           2           3           4           5           6           7           8           9          10
 ........................................................................................................................
   1    9.991       8.884       7.776       6.669       5.560       4.452       3.342       2.232       1.122      1.1106E-02
   2    9.991       8.884       7.776       6.669       5.560       4.452       3.342       2.232       1.122      1.1106E-02
   3    9.991       8.884       7.776       6.669       5.560       4.452       3.342       2.232       1.122      1.1106E-02
   4    9.991       8.884       7.776       6.669       5.560       4.452       3.342       2.232       1.122      1.1106E-02
   5    9.991       8.884       7.776       6.669       5.560       4.452       3.342       2.232       1.122      1.1106E-02
   6    9.991       8.884       7.776       6.669       5.560       4.452       3.342       2.232       1.122      1.1106E-02
   7    9.991       8.884       7.776       6.669       5.560       4.452       3.342       2.232       1.122      1.1106E-02
   8    9.991       8.884       7.776       6.669       5.560       4.452       3.342       2.232       1.122      1.1106E-02
   9    9.991       8.884       7.776       6.669       5.560       4.452       3.342       2.232       1.122      1.1106E-02
  10    9.991       8.884       7.776       6.669       5.560       4.452       3.342       2.232       1.122      1.1106E-02

 HEAD WILL BE SAVED ON UNIT   51 AT END OF TIME STEP    9, STRESS PERIOD    2
1
  VOLUMETRIC BUDGET FOR ENTIRE MODEL AT END OF TIME STEP    9, STRESS PERIOD   2
  ------------------------------------------------------------------------------

     CUMULATIVE VOLUMES      L**3       RATES FOR THIS TIME STEP      L**3/T
     ------------------                 ------------------------

           IN:                                      IN:
           ---                                      ---
             STORAGE =       24980.6113               STORAGE =          17.7384
       CONSTANT HEAD =           0.0000         CONSTANT HEAD =           0.0000
               WELLS =           0.0000                 WELLS =           0.0000
     HEAD DEP BOUNDS =       42476.8672       HEAD DEP BOUNDS =        5535.1660

            TOTAL IN =       67457.4766              TOTAL IN =        5552.9043

          OUT:                                     OUT:
          ----                                     ----
             STORAGE =           0.0000               STORAGE =           0.0000
       CONSTANT HEAD =           0.0000         CONSTANT HEAD =           0.0000
               WELLS =           0.0000                 WELLS =           0.0000
     HEAD DEP BOUNDS =       67458.2578       HEAD DEP BOUNDS =        5553.1333

           TOTAL OUT =       67458.2578             TOTAL OUT =        5553.1333

            IN - OUT =          -0.7812              IN - OUT =          -0.2290

 PERCENT DISCREPANCY =          -0.00     PERCENT DISCREPANCY =          -0.00






         TIME SUMMARY AT END OF TIME STEP    9 IN STRESS PERIOD    2
                    SECONDS     MINUTES      HOURS       DAYS        YEARS
                    -----------------------------------------------------------
   TIME STEP LENGTH  86400.      1440.0      24.000      1.0000     2.73785E-03
 STRESS PERIOD TIME 7.77600E+05  12960.      216.00      9.0000     2.46407E-02
         TOTAL TIME 8.64000E+05  14400.      240.00      10.000     2.73785E-02
1

 SOLVING FOR HEAD 

 OUTPUT CONTROL FOR STRESS PERIOD    2   TIME STEP   10
    PRINT HEAD FOR ALL LAYERS
    SAVE HEAD FOR ALL LAYERS
    PRINT BUDGET
    SAVE BUDGET
1
              HEAD IN LAYER   1 AT END OF TIME STEP  10 IN STRESS PERIOD    2
  ---------------------------------------------------------------------------

            1           2           3           4           5           6           7           8           9          10
 ........................................................................................................................
   1    9.991       8.883       7.775       6.666       5.558       4.449       3.340       2.230       1.121      1.1097E-02
   2    9.991       8.883       7.775       6.666       5.558       4.449       3.340       2.230       1.121      1.1097E-02
   3    9.991       8.883       7.775       6.666       5.558       4.449       3.340       2.230       1.121      1.1097E-02
   4    9.991       8.883       7.775       6.666       5.558       4.449       3.340       2.230       1.121      1.1097E-02
   5    9.991       8.883       7.775       6.666       5.558       4.449       3.340       2.230       1.121      1.1097E-02
   6    9.991       8.883       7.775       6.666       5.558       4.449       3.340       2.230       1.121      1.1097E-02
   7    9.991       8.883       7.775       6.666       5.558       4.449       3.340       2.230       1.121      1.1097E-02
   8    9.991       8.883       7.775       6.666       5.558       4.449       3.340       2.230       1.121      1.1097E-02
   9    9.991       8.883       7.775       6.666       5.558       4.449       3.340       2.230       1.121      1.1097E-02
  10    9.991       8.883       7.775       6.666       5.558       4.449       3.340       2.230       1.121      1.1097E-02

 HEAD WILL BE SAVED ON UNIT   51 AT END OF TIME STEP   10, STRESS PERIOD    2
1
  VOLUMETRIC BUDGET FOR ENTIRE MODEL AT END OF TIME STEP   10, STRESS PERIOD   2
  ------------------------------------------------------------------------------

     CUMULATIVE VOLUMES      L**3       RATES FOR THIS TIME STEP      L**3/T
     ------------------                 ------------------------

           IN:                                      IN:
           ---                                      ---
             STORAGE =       24988.6699               STORAGE =           8.0585
       CONSTANT HEAD =           0.0000         CONSTANT HEAD =           0.0000
               WELLS =           0.0000                 WELLS =           0.0000
     HEAD DEP BOUNDS =       48016.8633       HEAD DEP BOUNDS =        5539.9956

            TOTAL IN =       73005.5312              TOTAL IN =        5548.0542

          OUT:                                     OUT:
          ----                                     ----
             STORAGE =           0.0000               STORAGE =           0.0000
       CONSTANT HEAD =           0.0000         CONSTANT HEAD =           0.0000
               WELLS =           0.0000                 WELLS =           0.0000
     HEAD DEP BOUNDS =       73006.5469       HEAD DEP BOUNDS =        5548.2915

           TOTAL OUT =       73006.5469             TOTAL OUT =        5548.2915

            IN - OUT =          -1.0156              IN - OUT =          -0.2373

 PERCENT DISCREPANCY =          -0.00     PERCENT DISCREPANCY =          -0.00






         TIME SUMMARY AT END OF TIME STEP   10 IN STRESS PERIOD    2
                    SECONDS     MINUTES      HOURS       DAYS        YEARS
                    -----------------------------------------------------------
   TIME STEP LENGTH  86400.      1440.0      24.000      1.0000     2.73785E-03
 STRESS PERIOD TIME 8.64000E+05  14400.      240.00      10.000     2.73785E-02
         TOTAL TIME 9.50400E+05  15840.      264.00      11.000     3.01164E-02
1

 SOLVING FOR HEAD 

 OUTPUT CONTROL FOR STRESS PERIOD    2   TIME STEP   11
    PRINT HEAD FOR ALL LAYERS
    SAVE HEAD FOR ALL LAYERS
    PRINT BUDGET
    SAVE BUDGET
1
              HEAD IN LAYER   1 AT END OF TIME STEP  11 IN STRESS PERIOD    2
  ---------------------------------------------------------------------------

            1           2           3           4           5           6           7           8           9          10
 ........................................................................................................................
   1    9.991       8.882       7.774       6.665       5.556       4.448       3.339       2.229       1.120      1.1092E-02
   2    9.991       8.882       7.774       6.665       5.556       4.448       3.339       2.229       1.120      1.1092E-02
   3    9.991       8.882       7.774       6.665       5.556       4.448       3.339       2.229       1.120      1.1092E-02
   4    9.991       8.882       7.774       6.665       5.556       4.448       3.339       2.229       1.120      1.1092E-02
   5    9.991       8.882       7.774       6.665       5.556       4.448       3.339       2.229       1.120      1.1092E-02
   6    9.991       8.882       7.774       6.665       5.556       4.448       3.339       2.229       1.120      1.1092E-02
   7    9.991       8.882       7.774       6.665       5.556       4.448       3.339       2.229       1.120      1.1092E-02
   8    9.991       8.882       7.774       6.665       5.556       4.448       3.339       2.229       1.120      1.1092E-02
   9    9.991       8.882       7.774       6.665       5.556       4.448       3.339       2.229       1.120      1.1092E-02
  10    9.991       8.882       7.774       6.665       5.556       4.448       3.339       2.229       1.120      1.1092E-02

 HEAD WILL BE SAVED ON UNIT   51 AT END OF TIME STEP   11, STRESS PERIOD    2
1
  VOLUMETRIC BUDGET FOR ENTIRE MODEL AT END OF TIME STEP   11, STRESS PERIOD   2
  ------------------------------------------------------------------------------

     CUMULATIVE VOLUMES      L**3       RATES FOR THIS TIME STEP      L**3/T
     ------------------                 ------------------------

           IN:                                      IN:
           ---                                      ---
             STORAGE =       24992.3301               STORAGE =           3.6600
       CONSTANT HEAD =           0.0000         CONSTANT HEAD =           0.0000
               WELLS =           0.0000                 WELLS =           0.0000
     HEAD DEP BOUNDS =       53559.0547       HEAD DEP BOUNDS =        5542.1904

            TOTAL IN =       78551.3828              TOTAL IN =        5545.8506

          OUT:                                     OUT:
          ----                                     ----
             STORAGE =           0.0000               STORAGE =           0.0000
       CONSTANT HEAD =           0.0000         CONSTANT HEAD =           0.0000
               WELLS =           0.0000                 WELLS =           0.0000
     HEAD DEP BOUNDS =       78552.6406       HEAD DEP BOUNDS =        5546.0923

           TOTAL OUT =       78552.6406             TOTAL OUT =        5546.0923

            IN - OUT =          -1.2578              IN - OUT =          -0.2417

 PERCENT DISCREPANCY =          -0.00     PERCENT DISCREPANCY =          -0.00






         TIME SUMMARY AT END OF TIME STEP   11 IN STRESS PERIOD    2
                    SECONDS     MINUTES      HOURS       DAYS        YEARS
                    -----------------------------------------------------------
   TIME STEP LENGTH  86400.      1440.0      24.000      1.0000     2.73785E-03
 STRESS PERIOD TIME 9.50400E+05  15840.      264.00      11.000     3.01164E-02
         TOTAL TIME 1.03680E+06  17280.      288.00      12.000     3.28542E-02
1

 SOLVING FOR HEAD 

 OUTPUT CONTROL FOR STRESS PERIOD    2   TIME STEP   12
    PRINT HEAD FOR ALL LAYERS
    SAVE HEAD FOR ALL LAYERS
    PRINT BUDGET
    SAVE BUDGET
1
              HEAD IN LAYER   1 AT END OF TIME STEP  12 IN STRESS PERIOD    2
  ---------------------------------------------------------------------------

            1           2           3           4           5           6           7           8           9          10
 ........................................................................................................................
   1    9.991       8.882       7.773       6.665       5.556       4.447       3.338       2.229       1.120      1.1090E-02
   2    9.991       8.882       7.773       6.665       5.556       4.447       3.338       2.229       1.120      1.1090E-02
   3    9.991       8.882       7.773       6.665       5.556       4.447       3.338       2.229       1.120      1.1090E-02
   4    9.991       8.882       7.773       6.665       5.556       4.447       3.338       2.229       1.120      1.1090E-02
   5    9.991       8.882       7.773       6.665       5.556       4.447       3.338       2.229       1.120      1.1090E-02
   6    9.991       8.882       7.773       6.665       5.556       4.447       3.338       2.229       1.120      1.1090E-02
   7    9.991       8.882       7.773       6.665       5.556       4.447       3.338       2.229       1.120      1.1090E-02
   8    9.991       8.882       7.773       6.665       5.556       4.447       3.338       2.229       1.120      1.1090E-02
   9    9.991       8.882       7.773       6.665       5.556       4.447       3.338       2.229       1.120      1.1090E-02
  10    9.991       8.882       7.773       6.665       5.556       4.447       3.338       2.229       1.120      1.1090E-02

 HEAD WILL BE SAVED ON UNIT   51 AT END OF TIME STEP   12, STRESS PERIOD    2
1
  VOLUMETRIC BUDGET FOR ENTIRE MODEL AT END OF TIME STEP   12, STRESS PERIOD   2
  ------------------------------------------------------------------------------

     CUMULATIVE VOLUMES      L**3       RATES FOR THIS TIME STEP      L**3/T
     ------------------                 ------------------------

           IN:                                      IN:
           ---                                      ---
             STORAGE =       24993.9922               STORAGE =           1.6624
       CONSTANT HEAD =           0.0000         CONSTANT HEAD =           0.0000
               WELLS =           0.0000                 WELLS =           0.0000
     HEAD DEP BOUNDS =       59102.2422       HEAD DEP BOUNDS =        5543.1870

            TOTAL IN =       84096.2344              TOTAL IN =        5544.8496

          OUT:                                     OUT:
          ----                                     ----
             STORAGE =           0.0000               STORAGE =           0.0000
       CONSTANT HEAD =           0.0000         CONSTANT HEAD =           0.0000
               WELLS =           0.0000                 WELLS =           0.0000
     HEAD DEP BOUNDS =       84097.7344       HEAD DEP BOUNDS =        5545.0933

           TOTAL OUT =       84097.7344             TOTAL OUT =        5545.0933

            IN - OUT =          -1.5000              IN - OUT =          -0.2437

 PERCENT DISCREPANCY =          -0.00     PERCENT DISCREPANCY =          -0.00






         TIME SUMMARY AT END OF TIME STEP   12 IN STRESS PERIOD    2
                    SECONDS     MINUTES      HOURS       DAYS        YEARS
                    -----------------------------------------------------------
   TIME STEP LENGTH  86400.      1440.0      24.000      1.0000     2.73785E-03
 STRESS PERIOD TIME 1.03680E+06  17280.      288.00      12.000     3.28542E-02
         TOTAL TIME 1.12320E+06  18720.      312.00      13.000     3.55921E-02
1

 SOLVING FOR HEAD 

 OUTPUT CONTROL FOR STRESS PERIOD    2   TIME STEP   13
    PRINT HEAD FOR ALL LAYERS
    SAVE HEAD FOR ALL LAYERS
    PRINT BUDGET
    SAVE BUDGET
1
              HEAD IN LAYER   1 AT END OF TIME STEP  13 IN STRESS PERIOD    2
  ---------------------------------------------------------------------------

            1           2           3           4           5           6           7           8           9          10
 ........................................................................................................................
   1    9.991       8.882       7.773       6.664       5.556       4.447       3.338       2.229       1.120      1.1089E-02
   2    9.991       8.882       7.773       6.664       5.556       4.447       3.338       2.229       1.120      1.1089E-02
   3    9.991       8.882       7.773       6.664       5.556       4.447       3.338       2.229       1.120      1.1089E-02
   4    9.991       8.882       7.773       6.664       5.556       4.447       3.338       2.229       1.120      1.1089E-02
   5    9.991       8.882       7.773       6.664       5.556       4.447       3.338       2.229       1.120      1.1089E-02
   6    9.991       8.882       7.773       6.664       5.556       4.447       3.338       2.229       1.120      1.1089E-02
   7    9.991       8.882       7.773       6.664       5.556       4.447       3.338       2.229       1.120      1.1089E-02
   8    9.991       8.882       7.773       6.664       5.556       4.447       3.338       2.229       1.120      1.1089E-02
   9    9.991       8.882       7.773       6.664       5.556       4.447       3.338       2.229       1.120      1.1089E-02
  10    9.991       8.882       7.773       6.664       5.556       4.447       3.338       2.229       1.120      1.1089E-02

 HEAD WILL BE SAVED ON UNIT   51 AT END OF TIME STEP   13, STRESS PERIOD    2
1
  VOLUMETRIC BUDGET FOR ENTIRE MODEL AT END OF TIME STEP   13, STRESS PERIOD   2
  ------------------------------------------------------------------------------

     CUMULATIVE VOLUMES      L**3       RATES FOR THIS TIME STEP      L**3/T
     ------------------                 ------------------------

           IN:                                      IN:
           ---                                      ---
             STORAGE =       24994.7480               STORAGE =           0.7559
       CONSTANT HEAD =           0.0000         CONSTANT HEAD =           0.0000
               WELLS =           0.0000                 WELLS =           0.0000
     HEAD DEP BOUNDS =       64645.8828       HEAD DEP BOUNDS =        5543.6396

            TOTAL IN =       89640.6328              TOTAL IN =        5544.3955

          OUT:                                     OUT:
          ----                                     ----
             STORAGE =           0.0000               STORAGE =           0.0000
       CONSTANT HEAD =           0.0000         CONSTANT HEAD =           0.0000
               WELLS =           0.0000                 WELLS =           0.0000
     HEAD DEP BOUNDS =       89642.3750       HEAD DEP BOUNDS =        5544.6396

           TOTAL OUT =       89642.3750             TOTAL OUT =        5544.6396

            IN - OUT =          -1.7422              IN - OUT =          -0.2441

 PERCENT DISCREPANCY =          -0.00     PERCENT DISCREPANCY =          -0.00






         TIME SUMMARY AT END OF TIME STEP   13 IN STRESS PERIOD    2
                    SECONDS     MINUTES      HOURS       DAYS        YEARS
                    -----------------------------------------------------------
   TIME STEP LENGTH  86400.      1440.0      24.000      1.0000     2.73785E-03
 STRESS PERIOD TIME 1.12320E+06  18720.      312.00      13.000     3.55921E-02
         TOTAL TIME 1.20960E+06  20160.      336.00      14.000     3.83299E-02
1

 SOLVING FOR HEAD 

 OUTPUT CONTROL FOR STRESS PERIOD    2   TIME STEP   14
    PRINT HEAD FOR ALL LAYERS
    SAVE HEAD FOR ALL LAYERS
    PRINT BUDGET
    SAVE BUDGET
1
              HEAD IN LAYER   1 AT END OF TIME STEP  14 IN STRESS PERIOD    2
  ---------------------------------------------------------------------------

            1           2           3           4           5           6           7           8           9          10
 ........................................................................................................................
   1    9.991       8.882       7.773       6.664       5.555       4.447       3.338       2.229       1.120      1.1089E-02
   2    9.991       8.882       7.773       6.664       5.555       4.447       3.338       2.229       1.120      1.1089E-02
   3    9.991       8.882       7.773       6.664       5.555       4.447       3.338       2.229       1.120      1.1089E-02
   4    9.991       8.882       7.773       6.664       5.555       4.447       3.338       2.229       1.120      1.1089E-02
   5    9.991       8.882       7.773       6.664       5.555       4.447       3.338       2.229       1.120      1.1089E-02
   6    9.991       8.882       7.773       6.664       5.555       4.447       3.338       2.229       1.120      1.1089E-02
   7    9.991       8.882       7.773       6.664       5.555       4.447       3.338       2.229       1.120      1.1089E-02
   8    9.991       8.882       7.773       6.664       5.555       4.447       3.338       2.229       1.120      1.1089E-02
   9    9.991       8.882       7.773       6.664       5.555       4.447       3.338       2.229       1.120      1.1089E-02
  10    9.991       8.882       7.773       6.664       5.555       4.447       3.338       2.229       1.120      1.1089E-02

 HEAD WILL BE SAVED ON UNIT   51 AT END OF TIME STEP   14, STRESS PERIOD    2
1
  VOLUMETRIC BUDGET FOR ENTIRE MODEL AT END OF TIME STEP   14, STRESS PERIOD   2
  ------------------------------------------------------------------------------

     CUMULATIVE VOLUMES      L**3       RATES FOR THIS TIME STEP      L**3/T
     ------------------                 ------------------------

           IN:                                      IN:
           ---                                      ---
             STORAGE =       24995.0918               STORAGE =           0.3433
       CONSTANT HEAD =           0.0000         CONSTANT HEAD =           0.0000
               WELLS =           0.0000                 WELLS =           0.0000
     HEAD DEP BOUNDS =       70189.7266       HEAD DEP BOUNDS =        5543.8457

            TOTAL IN =       95184.8203              TOTAL IN =        5544.1890

          OUT:                                     OUT:
          ----                                     ----
             STORAGE =           0.0000               STORAGE =           0.0000
       CONSTANT HEAD =           0.0000         CONSTANT HEAD =           0.0000
               WELLS =           0.0000                 WELLS =           0.0000
     HEAD DEP BOUNDS =       95186.8125       HEAD DEP BOUNDS =        5544.4336

           TOTAL OUT =       95186.8125             TOTAL OUT =        5544.4336

            IN - OUT =          -1.9922              IN - OUT =          -0.2446

 PERCENT DISCREPANCY =          -0.00     PERCENT DISCREPANCY =          -0.00






         TIME SUMMARY AT END OF TIME STEP   14 IN STRESS PERIOD    2
                    SECONDS     MINUTES      HOURS       DAYS        YEARS
                    -----------------------------------------------------------
   TIME STEP LENGTH  86400.      1440.0      24.000      1.0000     2.73785E-03
 STRESS PERIOD TIME 1.20960E+06  20160.      336.00      14.000     3.83299E-02
         TOTAL TIME 1.29600E+06  21600.      360.00      15.000     4.10678E-02
1

 SOLVING FOR HEAD 

 OUTPUT CONTROL FOR STRESS PERIOD    2   TIME STEP   15
    PRINT HEAD FOR ALL LAYERS
    SAVE HEAD FOR ALL LAYERS
    PRINT BUDGET
    SAVE BUDGET
1
              HEAD IN LAYER   1 AT END OF TIME STEP  15 IN STRESS PERIOD    2
  ---------------------------------------------------------------------------

            1           2           3           4           5           6           7           8           9          10
 ........................................................................................................................
   1    9.991       8.882       7.773       6.664       5.555       4.447       3.338       2.229       1.120      1.1089E-02
   2    9.991       8.882       7.773       6.664       5.555       4.447       3.338       2.229       1.120      1.1089E-02
   3    9.991       8.882       7.773       6.664       5.555       4.447       3.338       2.229       1.120      1.1089E-02
   4    9.991       8.882       7.773       6.664       5.555       4.447       3.338       2.229       1.120      1.1089E-02
   5    9.991       8.882       7.773       6.664       5.555       4.447       3.338       2.229       1.120      1.1089E-02
   6    9.991       8.882       7.773       6.664       5.555       4.447       3.338       2.229       1.120      1.1089E-02
   7    9.991       8.882       7.773       6.664       5.555       4.447       3.338       2.229       1.120      1.1089E-02
   8    9.991       8.882       7.773       6.664       5.555       4.447       3.338       2.229       1.120      1.1089E-02
   9    9.991       8.882       7.773       6.664       5.555       4.447       3.338       2.229       1.120      1.1089E-02
  10    9.991       8.882       7.773       6.664       5.555       4.447       3.338       2.229       1.120      1.1089E-02

 HEAD WILL BE SAVED ON UNIT   51 AT END OF TIME STEP   15, STRESS PERIOD    2
1
  VOLUMETRIC BUDGET FOR ENTIRE MODEL AT END OF TIME STEP   15, STRESS PERIOD   2
  ------------------------------------------------------------------------------

     CUMULATIVE VOLUMES      L**3       RATES FOR THIS TIME STEP      L**3/T
     ------------------                 ------------------------

           IN:                                      IN:
           ---                                      ---
             STORAGE =       24995.2461               STORAGE =           0.1552
       CONSTANT HEAD =           0.0000         CONSTANT HEAD =           0.0000
               WELLS =           0.0000                 WELLS =           0.0000
     HEAD DEP BOUNDS =       75733.6641       HEAD DEP BOUNDS =        5543.9395

            TOTAL IN =      100728.9062              TOTAL IN =        5544.0947

          OUT:                                     OUT:
          ----                                     ----
             STORAGE =           0.0000               STORAGE =           0.0000
       CONSTANT HEAD =           0.0000         CONSTANT HEAD =           0.0000
               WELLS =           0.0000                 WELLS =           0.0000
     HEAD DEP BOUNDS =      100731.1562       HEAD DEP BOUNDS =        5544.3398

           TOTAL OUT =      100731.1562             TOTAL OUT =        5544.3398

            IN - OUT =          -2.2500              IN - OUT =          -0.2451

 PERCENT DISCREPANCY =          -0.00     PERCENT DISCREPANCY =          -0.00






         TIME SUMMARY AT END OF TIME STEP   15 IN STRESS PERIOD    2
                    SECONDS     MINUTES      HOURS       DAYS        YEARS
                    -----------------------------------------------------------
   TIME STEP LENGTH  86400.      1440.0      24.000      1.0000     2.73785E-03
 STRESS PERIOD TIME 1.29600E+06  21600.      360.00      15.000     4.10678E-02
         TOTAL TIME 1.38240E+06  23040.      384.00      16.000     4.38056E-02
1

 SOLVING FOR HEAD 

 OUTPUT CONTROL FOR STRESS PERIOD    2   TIME STEP   16
    PRINT HEAD FOR ALL LAYERS
    SAVE HEAD FOR ALL LAYERS
    PRINT BUDGET
    SAVE BUDGET
1
              HEAD IN LAYER   1 AT END OF TIME STEP  16 IN STRESS PERIOD    2
  ---------------------------------------------------------------------------

            1           2           3           4           5           6           7           8           9          10
 ........................................................................................................................
   1    9.991       8.882       7.773       6.664       5.555       4.447       3.338       2.229       1.120      1.1089E-02
   2    9.991       8.882       7.773       6.664       5.555       4.447       3.338       2.229       1.120      1.1089E-02
   3    9.991       8.882       7.773       6.664       5.555       4.447       3.338       2.229       1.120      1.1089E-02
   4    9.991       8.882       7.773       6.664       5.555       4.447       3.338       2.229       1.120      1.1089E-02
   5    9.991       8.882       7.773       6.664       5.555       4.447       3.338       2.229       1.120      1.1089E-02
   6    9.991       8.882       7.773       6.664       5.555       4.447       3.338       2.229       1.120      1.1089E-02
   7    9.991       8.882       7.773       6.664       5.555       4.447       3.338       2.229       1.120      1.1089E-02
   8    9.991       8.882       7.773       6.664       5.555       4.447       3.338       2.229       1.120      1.1089E-02
   9    9.991       8.882       7.773       6.664       5.555       4.447       3.338       2.229       1.120      1.1089E-02
  10    9.991       8.882       7.773       6.664       5.555       4.447       3.338       2.229       1.120      1.1089E-02

 HEAD WILL BE SAVED ON UNIT   51 AT END OF TIME STEP   16, STRESS PERIOD    2
1
  VOLUMETRIC BUDGET FOR ENTIRE MODEL AT END OF TIME STEP   16, STRESS PERIOD   2
  ------------------------------------------------------------------------------

     CUMULATIVE VOLUMES      L**3       RATES FOR THIS TIME STEP      L**3/T
     ------------------                 ------------------------

           IN:                                      IN:
           ---                                      ---
             STORAGE =       24995.3164               STORAGE =       7.1148E-02
       CONSTANT HEAD =           0.0000         CONSTANT HEAD =           0.0000
               WELLS =           0.0000                 WELLS =           0.0000
     HEAD DEP BOUNDS =       81277.6484       HEAD DEP BOUNDS =        5543.9814

            TOTAL IN =      106272.9688              TOTAL IN =        5544.0527

          OUT:                                     OUT:
          ----                                     ----
             STORAGE =           0.0000               STORAGE =           0.0000
       CONSTANT HEAD =           0.0000         CONSTANT HEAD =           0.0000
               WELLS =           0.0000                 WELLS =           0.0000
     HEAD DEP BOUNDS =      106275.4531       HEAD DEP BOUNDS =        5544.2974

           TOTAL OUT =      106275.4531             TOTAL OUT =        5544.2974

            IN - OUT =          -2.4844              IN - OUT =          -0.2446

 PERCENT DISCREPANCY =          -0.00     PERCENT DISCREPANCY =          -0.00






         TIME SUMMARY AT END OF TIME STEP   16 IN STRESS PERIOD    2
                    SECONDS     MINUTES      HOURS       DAYS        YEARS
                    -----------------------------------------------------------
   TIME STEP LENGTH  86400.      1440.0      24.000      1.0000     2.73785E-03
 STRESS PERIOD TIME 1.38240E+06  23040.      384.00      16.000     4.38056E-02
         TOTAL TIME 1.46880E+06  24480.      408.00      17.000     4.65435E-02
1

 SOLVING FOR HEAD 

 OUTPUT CONTROL FOR STRESS PERIOD    2   TIME STEP   17
    PRINT HEAD FOR ALL LAYERS
    SAVE HEAD FOR ALL LAYERS
    PRINT BUDGET
    SAVE BUDGET
1
              HEAD IN LAYER   1 AT END OF TIME STEP  17 IN STRESS PERIOD    2
  ---------------------------------------------------------------------------

            1           2           3           4           5           6           7           8           9          10
 ........................................................................................................................
   1    9.991       8.882       7.773       6.664       5.555       4.447       3.338       2.229       1.120      1.1089E-02
   2    9.991       8.882       7.773       6.664       5.555       4.447       3.338       2.229       1.120      1.1089E-02
   3    9.991       8.882       7.773       6.664       5.555       4.447       3.338       2.229       1.120      1.1089E-02
   4    9.991       8.882       7.773       6.664       5.555       4.447       3.338       2.229       1.120      1.1089E-02
   5    9.991       8.882       7.773       6.664       5.555       4.447       3.338       2.229       1.120      1.1089E-02
   6    9.991       8.882       7.773       6.664       5.555       4.447       3.338       2.229       1.120      1.1089E-02
   7    9.991       8.882       7.773       6.664       5.555       4.447       3.338       2.229       1.120      1.1089E-02
   8    9.991       8.882       7.773       6.664       5.555       4.447       3.338       2.229       1.120      1.1089E-02
   9    9.991       8.882       7.773       6.664       5.555       4.447       3.338       2.229       1.120      1.1089E-02
  10    9.991       8.882       7.773       6.664       5.555       4.447       3.338       2.229       1.120      1.1089E-02

 HEAD WILL BE SAVED ON UNIT   51 AT END OF TIME STEP   17, STRESS PERIOD    2
1
  VOLUMETRIC BUDGET FOR ENTIRE MODEL AT END OF TIME STEP   17, STRESS PERIOD   2
  ------------------------------------------------------------------------------

     CUMULATIVE VOLUMES      L**3       RATES FOR THIS TIME STEP      L**3/T
     ------------------                 ------------------------

           IN:                                      IN:
           ---                                      ---
             STORAGE =       24995.3477               STORAGE =       3.1911E-02
       CONSTANT HEAD =           0.0000         CONSTANT HEAD =           0.0000
               WELLS =           0.0000                 WELLS =           0.0000
     HEAD DEP BOUNDS =       86821.6484       HEAD DEP BOUNDS =        5544.0005

            TOTAL IN =      111817.0000              TOTAL IN =        5544.0322

          OUT:                                     OUT:
          ----                                     ----
             STORAGE =           0.0000               STORAGE =           0.0000
       CONSTANT HEAD =           0.0000         CONSTANT HEAD =           0.0000
               WELLS =           0.0000                 WELLS =           0.0000
     HEAD DEP BOUNDS =      111819.7344       HEAD DEP BOUNDS =        5544.2778

           TOTAL OUT =      111819.7344             TOTAL OUT =        5544.2778

            IN - OUT =          -2.7344              IN - OUT =          -0.2456

 PERCENT DISCREPANCY =          -0.00     PERCENT DISCREPANCY =          -0.00






         TIME SUMMARY AT END OF TIME STEP   17 IN STRESS PERIOD    2
                    SECONDS     MINUTES      HOURS       DAYS        YEARS
                    -----------------------------------------------------------
   TIME STEP LENGTH  86400.      1440.0      24.000      1.0000     2.73785E-03
 STRESS PERIOD TIME 1.46880E+06  24480.      408.00      17.000     4.65435E-02
         TOTAL TIME 1.55520E+06  25920.      432.00      18.000     4.92813E-02
1

 SOLVING FOR HEAD 

 OUTPUT CONTROL FOR STRESS PERIOD    2   TIME STEP   18
    PRINT HEAD FOR ALL LAYERS
    SAVE HEAD FOR ALL LAYERS
    PRINT BUDGET
    SAVE BUDGET
1
              HEAD IN LAYER   1 AT END OF TIME STEP  18 IN STRESS PERIOD    2
  ---------------------------------------------------------------------------

            1           2           3           4           5           6           7           8           9          10
 ........................................................................................................................
   1    9.991       8.882       7.773       6.664       5.555       4.447       3.338       2.229       1.120      1.1089E-02
   2    9.991       8.882       7.773       6.664       5.555       4.447       3.338       2.229       1.120      1.1089E-02
   3    9.991       8.882       7.773       6.664       5.555       4.447       3.338       2.229       1.120      1.1089E-02
   4    9.991       8.882       7.773       6.664       5.555       4.447       3.338       2.229       1.120      1.1089E-02
   5    9.991       8.882       7.773       6.664       5.555       4.447       3.338       2.229       1.120      1.1089E-02
   6    9.991       8.882       7.773       6.664       5.555       4.447       3.338       2.229       1.120      1.1089E-02
   7    9.991       8.882       7.773       6.664       5.555       4.447       3.338       2.229       1.120      1.1089E-02
   8    9.991       8.882       7.773       6.664       5.555       4.447       3.338       2.229       1.120      1.1089E-02
   9    9.991       8.882       7.773       6.664       5.555       4.447       3.338       2.229       1.120      1.1089E-02
  10    9.991       8.882       7.773       6.664       5.555       4.447       3.338       2.229       1.120      1.1089E-02

 HEAD WILL BE SAVED ON UNIT   51 AT END OF TIME STEP   18, STRESS PERIOD    2
1
  VOLUMETRIC BUDGET FOR ENTIRE MODEL AT END OF TIME STEP   18, STRESS PERIOD   2
  ------------------------------------------------------------------------------

     CUMULATIVE VOLUMES      L**3       RATES FOR THIS TIME STEP      L**3/T
     ------------------                 ------------------------

           IN:                                      IN:
           ---                                      ---
             STORAGE =       24995.3633               STORAGE =       1.5191E-02
       CONSTANT HEAD =           0.0000         CONSTANT HEAD =           0.0000
               WELLS =           0.0000                 WELLS =           0.0000
     HEAD DEP BOUNDS =       92365.6562       HEAD DEP BOUNDS =        5544.0093

            TOTAL IN =      117361.0156              TOTAL IN =        5544.0244

          OUT:                                     OUT:
          ----                                     ----
             STORAGE =           0.0000               STORAGE =           0.0000
       CONSTANT HEAD =           0.0000         CONSTANT HEAD =           0.0000
               WELLS =           0.0000                 WELLS =           0.0000
     HEAD DEP BOUNDS =      117364.0000       HEAD DEP BOUNDS =        5544.2695

           TOTAL OUT =      117364.0000             TOTAL OUT =        5544.2695

            IN - OUT =          -2.9844              IN - OUT =          -0.2451

 PERCENT DISCREPANCY =          -0.00     PERCENT DISCREPANCY =          -0.00






         TIME SUMMARY AT END OF TIME STEP   18 IN STRESS PERIOD    2
                    SECONDS     MINUTES      HOURS       DAYS        YEARS
                    -----------------------------------------------------------
   TIME STEP LENGTH  86400.      1440.0      24.000      1.0000     2.73785E-03
 STRESS PERIOD TIME 1.55520E+06  25920.      432.00      18.000     4.92813E-02
         TOTAL TIME 1.64160E+06  27360.      456.00      19.000     5.20192E-02
1

 SOLVING FOR HEAD 

 OUTPUT CONTROL FOR STRESS PERIOD    2   TIME STEP   19
    PRINT HEAD FOR ALL LAYERS
    SAVE HEAD FOR ALL LAYERS
    PRINT BUDGET
    SAVE BUDGET
1
              HEAD IN LAYER   1 AT END OF TIME STEP  19 IN STRESS PERIOD    2
  ---------------------------------------------------------------------------

            1           2           3           4           5           6           7           8           9          10
 ........................................................................................................................
   1    9.991       8.882       7.773       6.664       5.555       4.446       3.338       2.229       1.120      1.1089E-02
   2    9.991       8.882       7.773       6.664       5.555       4.446       3.338       2.229       1.120      1.1089E-02
   3    9.991       8.882       7.773       6.664       5.555       4.446       3.338       2.229       1.120      1.1089E-02
   4    9.991       8.882       7.773       6.664       5.555       4.446       3.338       2.229       1.120      1.1089E-02
   5    9.991       8.882       7.773       6.664       5.555       4.446       3.338       2.229       1.120      1.1089E-02
   6    9.991       8.882       7.773       6.664       5.555       4.446       3.338       2.229       1.120      1.1089E-02
   7    9.991       8.882       7.773       6.664       5.555       4.446       3.338       2.229       1.120      1.1089E-02
   8    9.991       8.882       7.773       6.664       5.555       4.446       3.338       2.229       1.120      1.1089E-02
   9    9.991       8.882       7.773       6.664       5.555       4.446       3.338       2.229       1.120      1.1089E-02
  10    9.991       8.882       7.773       6.664       5.555       4.446       3.338       2.229       1.120      1.1089E-02

 HEAD WILL BE SAVED ON UNIT   51 AT END OF TIME STEP   19, STRESS PERIOD    2
1
  VOLUMETRIC BUDGET FOR ENTIRE MODEL AT END OF TIME STEP   19, STRESS PERIOD   2
  ------------------------------------------------------------------------------

     CUMULATIVE VOLUMES      L**3       RATES FOR THIS TIME STEP      L**3/T
     ------------------                 ------------------------

           IN:                                      IN:
           ---                                      ---
             STORAGE =       24995.3691               STORAGE =       6.2221E-03
       CONSTANT HEAD =           0.0000         CONSTANT HEAD =           0.0000
               WELLS =           0.0000                 WELLS =           0.0000
     HEAD DEP BOUNDS =       97909.6719       HEAD DEP BOUNDS =        5544.0137

            TOTAL IN =      122905.0391              TOTAL IN =        5544.0200

          OUT:                                     OUT:
          ----                                     ----
             STORAGE =           0.0000               STORAGE =           0.0000
       CONSTANT HEAD =           0.0000         CONSTANT HEAD =           0.0000
               WELLS =           0.0000                 WELLS =           0.0000
     HEAD DEP BOUNDS =      122908.2656       HEAD DEP BOUNDS =        5544.2651

           TOTAL OUT =      122908.2656             TOTAL OUT =        5544.2651

            IN - OUT =          -3.2266              IN - OUT =          -0.2451

 PERCENT DISCREPANCY =          -0.00     PERCENT DISCREPANCY =          -0.00






         TIME SUMMARY AT END OF TIME STEP   19 IN STRESS PERIOD    2
                    SECONDS     MINUTES      HOURS       DAYS        YEARS
                    -----------------------------------------------------------
   TIME STEP LENGTH  86400.      1440.0      24.000      1.0000     2.73785E-03
 STRESS PERIOD TIME 1.64160E+06  27360.      456.00      19.000     5.20192E-02
         TOTAL TIME 1.72800E+06  28800.      480.00      20.000     5.47570E-02
1

 SOLVING FOR HEAD 

 OUTPUT CONTROL FOR STRESS PERIOD    2   TIME STEP   20
    PRINT HEAD FOR ALL LAYERS
    SAVE HEAD FOR ALL LAYERS
    PRINT BUDGET
    SAVE BUDGET
1
              HEAD IN LAYER   1 AT END OF TIME STEP  20 IN STRESS PERIOD    2
  ---------------------------------------------------------------------------

            1           2           3           4           5           6           7           8           9          10
 ........................................................................................................................
   1    9.991       8.882       7.773       6.664       5.555       4.446       3.338       2.229       1.120      1.1089E-02
   2    9.991       8.882       7.773       6.664       5.555       4.446       3.338       2.229       1.120      1.1089E-02
   3    9.991       8.882       7.773       6.664       5.555       4.446       3.338       2.229       1.120      1.1089E-02
   4    9.991       8.882       7.773       6.664       5.555       4.446       3.338       2.229       1.120      1.1089E-02
   5    9.991       8.882       7.773       6.664       5.555       4.446       3.338       2.229       1.120      1.1089E-02
   6    9.991       8.882       7.773       6.664       5.555       4.446       3.338       2.229       1.120      1.1089E-02
   7    9.991       8.882       7.773       6.664       5.555       4.446       3.338       2.229       1.120      1.1089E-02
   8    9.991       8.882       7.773       6.664       5.555       4.446       3.338       2.229       1.120      1.1089E-02
   9    9.991       8.882       7.773       6.664       5.555       4.446       3.338       2.229       1.120      1.1089E-02
  10    9.991       8.882       7.773       6.664       5.555       4.446       3.338       2.229       1.120      1.1089E-02

 HEAD WILL BE SAVED ON UNIT   51 AT END OF TIME STEP   20, STRESS PERIOD    2
1
  VOLUMETRIC BUDGET FOR ENTIRE MODEL AT END OF TIME STEP   20, STRESS PERIOD   2
  ------------------------------------------------------------------------------

     CUMULATIVE VOLUMES      L**3       RATES FOR THIS TIME STEP      L**3/T
     ------------------                 ------------------------

           IN:                                      IN:
           ---                                      ---
             STORAGE =       24995.3730               STORAGE =       3.2830E-03
       CONSTANT HEAD =           0.0000         CONSTANT HEAD =           0.0000
               WELLS =           0.0000                 WELLS =           0.0000
     HEAD DEP BOUNDS =      103453.6875       HEAD DEP BOUNDS =        5544.0151

            TOTAL IN =      128449.0625              TOTAL IN =        5544.0186

          OUT:                                     OUT:
          ----                                     ----
             STORAGE =           0.0000               STORAGE =           0.0000
       CONSTANT HEAD =           0.0000         CONSTANT HEAD =           0.0000
               WELLS =           0.0000                 WELLS =           0.0000
     HEAD DEP BOUNDS =      128452.5312       HEAD DEP BOUNDS =        5544.2637

           TOTAL OUT =      128452.5312             TOTAL OUT =        5544.2637

            IN - OUT =          -3.4688              IN - OUT =          -0.2451

 PERCENT DISCREPANCY =          -0.00     PERCENT DISCREPANCY =          -0.00






         TIME SUMMARY AT END OF TIME STEP   20 IN STRESS PERIOD    2
                    SECONDS     MINUTES      HOURS       DAYS        YEARS
                    -----------------------------------------------------------
   TIME STEP LENGTH  86400.      1440.0      24.000      1.0000     2.73785E-03
 STRESS PERIOD TIME 1.72800E+06  28800.      480.00      20.000     5.47570E-02
         TOTAL TIME 1.81440E+06  30240.      504.00      21.000     5.74949E-02
1

 SOLVING FOR HEAD 

 OUTPUT CONTROL FOR STRESS PERIOD    2   TIME STEP   21
    PRINT HEAD FOR ALL LAYERS
    SAVE HEAD FOR ALL LAYERS
    PRINT BUDGET
    SAVE BUDGET
1
              HEAD IN LAYER   1 AT END OF TIME STEP  21 IN STRESS PERIOD    2
  ---------------------------------------------------------------------------

            1           2           3           4           5           6           7           8           9          10
 ........................................................................................................................
   1    9.991       8.882       7.773       6.664       5.555       4.446       3.338       2.229       1.120      1.1089E-02
   2    9.991       8.882       7.773       6.664       5.555       4.446       3.338       2.229       1.120      1.1089E-02
   3    9.991       8.882       7.773       6.664       5.555       4.446       3.338       2.229       1.120      1.1089E-02
   4    9.991       8.882       7.773       6.664       5.555       4.446       3.338       2.229       1.120      1.1089E-02
   5    9.991       8.882       7.773       6.664       5.555       4.446       3.338       2.229       1.120      1.1089E-02
   6    9.991       8.882       7.773       6.664       5.555       4.446       3.338       2.229       1.120      1.1089E-02
   7    9.991       8.882       7.773       6.664       5.555       4.446       3.338       2.229       1.120      1.1089E-02
   8    9.991       8.882       7.773       6.664       5.555       4.446       3.338       2.229       1.120      1.1089E-02
   9    9.991       8.882       7.773       6.664       5.555       4.446       3.338       2.229       1.120      1.1089E-02
  10    9.991       8.882       7.773       6.664       5.555       4.446       3.338       2.229       1.120      1.1089E-02

 HEAD WILL BE SAVED ON UNIT   51 AT END OF TIME STEP   21, STRESS PERIOD    2
1
  VOLUMETRIC BUDGET FOR ENTIRE MODEL AT END OF TIME STEP   21, STRESS PERIOD   2
  ------------------------------------------------------------------------------

     CUMULATIVE VOLUMES      L**3       RATES FOR THIS TIME STEP      L**3/T
     ------------------                 ------------------------

           IN:                                      IN:
           ---                                      ---
             STORAGE =       24995.3750               STORAGE =       1.7172E-03
       CONSTANT HEAD =           0.0000         CONSTANT HEAD =           0.0000
               WELLS =           0.0000                 WELLS =           0.0000
     HEAD DEP BOUNDS =      108997.7031       HEAD DEP BOUNDS =        5544.0161

            TOTAL IN =      133993.0781              TOTAL IN =        5544.0181

          OUT:                                     OUT:
          ----                                     ----
             STORAGE =           0.0000               STORAGE =           0.0000
       CONSTANT HEAD =           0.0000         CONSTANT HEAD =           0.0000
               WELLS =           0.0000                 WELLS =           0.0000
     HEAD DEP BOUNDS =      133996.7969       HEAD DEP BOUNDS =        5544.2627

           TOTAL OUT =      133996.7969             TOTAL OUT =        5544.2627

            IN - OUT =          -3.7188              IN - OUT =          -0.2446

 PERCENT DISCREPANCY =          -0.00     PERCENT DISCREPANCY =          -0.00






         TIME SUMMARY AT END OF TIME STEP   21 IN STRESS PERIOD    2
                    SECONDS     MINUTES      HOURS       DAYS        YEARS
                    -----------------------------------------------------------
   TIME STEP LENGTH  86400.      1440.0      24.000      1.0000     2.73785E-03
 STRESS PERIOD TIME 1.81440E+06  30240.      504.00      21.000     5.74949E-02
         TOTAL TIME 1.90080E+06  31680.      528.00      22.000     6.02327E-02
1

 SOLVING FOR HEAD 

 OUTPUT CONTROL FOR STRESS PERIOD    2   TIME STEP   22
    PRINT HEAD FOR ALL LAYERS
    SAVE HEAD FOR ALL LAYERS
    PRINT BUDGET
    SAVE BUDGET
1
              HEAD IN LAYER   1 AT END OF TIME STEP  22 IN STRESS PERIOD    2
  ---------------------------------------------------------------------------

            1           2           3           4           5           6           7           8           9          10
 ........................................................................................................................
   1    9.991       8.882       7.773       6.664       5.555       4.446       3.338       2.229       1.120      1.1089E-02
   2    9.991       8.882       7.773       6.664       5.555       4.446       3.338       2.229       1.120      1.1089E-02
   3    9.991       8.882       7.773       6.664       5.555       4.446       3.338       2.229       1.120      1.1089E-02
   4    9.991       8.882       7.773       6.664       5.555       4.446       3.338       2.229       1.120      1.1089E-02
   5    9.991       8.882       7.773       6.664       5.555       4.446       3.338       2.229       1.120      1.1089E-02
   6    9.991       8.882       7.773       6.664       5.555       4.446       3.338       2.229       1.120      1.1089E-02
   7    9.991       8.882       7.773       6.664       5.555       4.446       3.338       2.229       1.120      1.1089E-02
   8    9.991       8.882       7.773       6.664       5.555       4.446       3.338       2.229       1.120      1.1089E-02
   9    9.991       8.882       7.773       6.664       5.555       4.446       3.338       2.229       1.120      1.1089E-02
  10    9.991       8.882       7.773       6.664       5.555       4.446       3.338       2.229       1.120      1.1089E-02

 HEAD WILL BE SAVED ON UNIT   51 AT END OF TIME STEP   22, STRESS PERIOD    2
1
  VOLUMETRIC BUDGET FOR ENTIRE MODEL AT END OF TIME STEP   22, STRESS PERIOD   2
  ------------------------------------------------------------------------------

     CUMULATIVE VOLUMES      L**3       RATES FOR THIS TIME STEP      L**3/T
     ------------------                 ------------------------

           IN:                                      IN:
           ---                                      ---
             STORAGE =       24995.3750               STORAGE =       4.5836E-04
       CONSTANT HEAD =           0.0000         CONSTANT HEAD =           0.0000
               WELLS =           0.0000                 WELLS =           0.0000
     HEAD DEP BOUNDS =      114541.7188       HEAD DEP BOUNDS =        5544.0166

            TOTAL IN =      139537.0938              TOTAL IN =        5544.0171

          OUT:                                     OUT:
          ----                                     ----
             STORAGE =           0.0000               STORAGE =           0.0000
       CONSTANT HEAD =           0.0000         CONSTANT HEAD =           0.0000
               WELLS =           0.0000                 WELLS =           0.0000
     HEAD DEP BOUNDS =      139541.0625       HEAD DEP BOUNDS =        5544.2622

           TOTAL OUT =      139541.0625             TOTAL OUT =        5544.2622

            IN - OUT =          -3.9688              IN - OUT =          -0.2451

 PERCENT DISCREPANCY =          -0.00     PERCENT DISCREPANCY =          -0.00






         TIME SUMMARY AT END OF TIME STEP   22 IN STRESS PERIOD    2
                    SECONDS     MINUTES      HOURS       DAYS        YEARS
                    -----------------------------------------------------------
   TIME STEP LENGTH  86400.      1440.0      24.000      1.0000     2.73785E-03
 STRESS PERIOD TIME 1.90080E+06  31680.      528.00      22.000     6.02327E-02
         TOTAL TIME 1.98720E+06  33120.      552.00      23.000     6.29706E-02
1

 SOLVING FOR HEAD 

 OUTPUT CONTROL FOR STRESS PERIOD    2   TIME STEP   23
    PRINT HEAD FOR ALL LAYERS
    SAVE HEAD FOR ALL LAYERS
    PRINT BUDGET
    SAVE BUDGET
1
              HEAD IN LAYER   1 AT END OF TIME STEP  23 IN STRESS PERIOD    2
  ---------------------------------------------------------------------------

            1           2           3           4           5           6           7           8           9          10
 ........................................................................................................................
   1    9.991       8.882       7.773       6.664       5.555       4.446       3.338       2.229       1.120      1.1089E-02
   2    9.991       8.882       7.773       6.664       5.555       4.446       3.338       2.229       1.120      1.1089E-02
   3    9.991       8.882       7.773       6.664       5.555       4.446       3.338       2.229       1.120      1.1089E-02
   4    9.991       8.882       7.773       6.664       5.555       4.446       3.338       2.229       1.120      1.1089E-02
   5    9.991       8.882       7.773       6.664       5.555       4.446       3.338       2.229       1.120      1.1089E-02
   6    9.991       8.882       7.773       6.664       5.555       4.446       3.338       2.229       1.120      1.1089E-02
   7    9.991       8.882       7.773       6.664       5.555       4.446       3.338       2.229       1.120      1.1089E-02
   8    9.991       8.882       7.773       6.664       5.555       4.446       3.338       2.229       1.120      1.1089E-02
   9    9.991       8.882       7.773       6.664       5.555       4.446       3.338       2.229       1.120      1.1089E-02
  10    9.991       8.882       7.773       6.664       5.555       4.446       3.338       2.229       1.120      1.1089E-02

 HEAD WILL BE SAVED ON UNIT   51 AT END OF TIME STEP   23, STRESS PERIOD    2
1
  VOLUMETRIC BUDGET FOR ENTIRE MODEL AT END OF TIME STEP   23, STRESS PERIOD   2
  ------------------------------------------------------------------------------

     CUMULATIVE VOLUMES      L**3       RATES FOR THIS TIME STEP      L**3/T
     ------------------                 ------------------------

           IN:                                      IN:
           ---                                      ---
             STORAGE =       24995.3750               STORAGE =       6.8665E-05
       CONSTANT HEAD =           0.0000         CONSTANT HEAD =           0.0000
               WELLS =           0.0000                 WELLS =           0.0000
     HEAD DEP BOUNDS =      120085.7344       HEAD DEP BOUNDS =        5544.0171

            TOTAL IN =      145081.1094              TOTAL IN =        5544.0171

          OUT:                                     OUT:
          ----                                     ----
             STORAGE =           0.0000               STORAGE =           0.0000
       CONSTANT HEAD =           0.0000         CONSTANT HEAD =           0.0000
               WELLS =           0.0000                 WELLS =           0.0000
     HEAD DEP BOUNDS =      145085.3281       HEAD DEP BOUNDS =        5544.2622

           TOTAL OUT =      145085.3281             TOTAL OUT =        5544.2622

            IN - OUT =          -4.2188              IN - OUT =          -0.2451

 PERCENT DISCREPANCY =          -0.00     PERCENT DISCREPANCY =          -0.00






         TIME SUMMARY AT END OF TIME STEP   23 IN STRESS PERIOD    2
                    SECONDS     MINUTES      HOURS       DAYS        YEARS
                    -----------------------------------------------------------
   TIME STEP LENGTH  86400.      1440.0      24.000      1.0000     2.73785E-03
 STRESS PERIOD TIME 1.98720E+06  33120.      552.00      23.000     6.29706E-02
         TOTAL TIME 2.07360E+06  34560.      576.00      24.000     6.57084E-02
1

 SOLVING FOR HEAD 

 OUTPUT CONTROL FOR STRESS PERIOD    2   TIME STEP   24
    PRINT HEAD FOR ALL LAYERS
    SAVE HEAD FOR ALL LAYERS
    PRINT BUDGET
    SAVE BUDGET
1
              HEAD IN LAYER   1 AT END OF TIME STEP  24 IN STRESS PERIOD    2
  ---------------------------------------------------------------------------

            1           2           3           4           5           6           7           8           9          10
 ........................................................................................................................
   1    9.991       8.882       7.773       6.664       5.555       4.446       3.338       2.229       1.120      1.1089E-02
   2    9.991       8.882       7.773       6.664       5.555       4.446       3.338       2.229       1.120      1.1089E-02
   3    9.991       8.882       7.773       6.664       5.555       4.446       3.338       2.229       1.120      1.1089E-02
   4    9.991       8.882       7.773       6.664       5.555       4.446       3.338       2.229       1.120      1.1089E-02
   5    9.991       8.882       7.773       6.664       5.555       4.446       3.338       2.229       1.120      1.1089E-02
   6    9.991       8.882       7.773       6.664       5.555       4.446       3.338       2.229       1.120      1.1089E-02
   7    9.991       8.882       7.773       6.664       5.555       4.446       3.338       2.229       1.120      1.1089E-02
   8    9.991       8.882       7.773       6.664       5.555       4.446       3.338       2.229       1.120      1.1089E-02
   9    9.991       8.882       7.773       6.664       5.555       4.446       3.338       2.229       1.120      1.1089E-02
  10    9.991       8.882       7.773       6.664       5.555       4.446       3.338       2.229       1.120      1.1089E-02

 HEAD WILL BE SAVED ON UNIT   51 AT END OF TIME STEP   24, STRESS PERIOD    2
1
  VOLUMETRIC BUDGET FOR ENTIRE MODEL AT END OF TIME STEP   24, STRESS PERIOD   2
  ------------------------------------------------------------------------------

     CUMULATIVE VOLUMES      L**3       RATES FOR THIS TIME STEP      L**3/T
     ------------------                 ------------------------

           IN:                                      IN:
           ---                                      ---
             STORAGE =       24995.3750               STORAGE =       3.3569E-04
       CONSTANT HEAD =           0.0000         CONSTANT HEAD =           0.0000
               WELLS =           0.0000                 WELLS =           0.0000
     HEAD DEP BOUNDS =      125629.7500       HEAD DEP BOUNDS =        5544.0171

            TOTAL IN =      150625.1250              TOTAL IN =        5544.0176

          OUT:                                     OUT:
          ----                                     ----
             STORAGE =           0.0000               STORAGE =           0.0000
       CONSTANT HEAD =           0.0000         CONSTANT HEAD =           0.0000
               WELLS =           0.0000                 WELLS =           0.0000
     HEAD DEP BOUNDS =      150629.5938       HEAD DEP BOUNDS =        5544.2622

           TOTAL OUT =      150629.5938             TOTAL OUT =        5544.2622

            IN - OUT =          -4.4688              IN - OUT =          -0.2446

 PERCENT DISCREPANCY =          -0.00     PERCENT DISCREPANCY =          -0.00






         TIME SUMMARY AT END OF TIME STEP   24 IN STRESS PERIOD    2
                    SECONDS     MINUTES      HOURS       DAYS        YEARS
                    -----------------------------------------------------------
   TIME STEP LENGTH  86400.      1440.0      24.000      1.0000     2.73785E-03
 STRESS PERIOD TIME 2.07360E+06  34560.      576.00      24.000     6.57084E-02
         TOTAL TIME 2.16000E+06  36000.      600.00      25.000     6.84463E-02
1

 SOLVING FOR HEAD 

 OUTPUT CONTROL FOR STRESS PERIOD    2   TIME STEP   25
    PRINT HEAD FOR ALL LAYERS
    SAVE HEAD FOR ALL LAYERS
    PRINT BUDGET
    SAVE BUDGET
1
              HEAD IN LAYER   1 AT END OF TIME STEP  25 IN STRESS PERIOD    2
  ---------------------------------------------------------------------------

            1           2           3           4           5           6           7           8           9          10
 ........................................................................................................................
   1    9.991       8.882       7.773       6.664       5.555       4.446       3.338       2.229       1.120      1.1089E-02
   2    9.991       8.882       7.773       6.664       5.555       4.446       3.338       2.229       1.120      1.1089E-02
   3    9.991       8.882       7.773       6.664       5.555       4.446       3.338       2.229       1.120      1.1089E-02
   4    9.991       8.882       7.773       6.664       5.555       4.446       3.338       2.229       1.120      1.1089E-02
   5    9.991       8.882       7.773       6.664       5.555       4.446       3.338       2.229       1.120      1.1089E-02
   6    9.991       8.882       7.773       6.664       5.555       4.446       3.338       2.229       1.120      1.1089E-02
   7    9.991       8.882       7.773       6.664       5.555       4.446       3.338       2.229       1.120      1.1089E-02
   8    9.991       8.882       7.773       6.664       5.555       4.446       3.338       2.229       1.120      1.1089E-02
   9    9.991       8.882       7.773       6.664       5.555       4.446       3.338       2.229       1.120      1.1089E-02
  10    9.991       8.882       7.773       6.664       5.555       4.446       3.338       2.229       1.120      1.1089E-02

 HEAD WILL BE SAVED ON UNIT   51 AT END OF TIME STEP   25, STRESS PERIOD    2
1
  VOLUMETRIC BUDGET FOR ENTIRE MODEL AT END OF TIME STEP   25, STRESS PERIOD   2
  ------------------------------------------------------------------------------

     CUMULATIVE VOLUMES      L**3       RATES FOR THIS TIME STEP      L**3/T
     ------------------                 ------------------------

           IN:                                      IN:
           ---                                      ---
             STORAGE =       24995.3750               STORAGE =       2.6703E-04
       CONSTANT HEAD =           0.0000         CONSTANT HEAD =           0.0000
               WELLS =           0.0000                 WELLS =           0.0000
     HEAD DEP BOUNDS =      131173.7656       HEAD DEP BOUNDS =        5544.0171

            TOTAL IN =      156169.1406              TOTAL IN =        5544.0176

          OUT:                                     OUT:
          ----                                     ----
             STORAGE =           0.0000               STORAGE =           0.0000
       CONSTANT HEAD =           0.0000         CONSTANT HEAD =           0.0000
               WELLS =           0.0000                 WELLS =           0.0000
     HEAD DEP BOUNDS =      156173.8594       HEAD DEP BOUNDS =        5544.2622

           TOTAL OUT =      156173.8594             TOTAL OUT =        5544.2622

            IN - OUT =          -4.7188              IN - OUT =          -0.2446

 PERCENT DISCREPANCY =          -0.00     PERCENT DISCREPANCY =          -0.00






         TIME SUMMARY AT END OF TIME STEP   25 IN STRESS PERIOD    2
                    SECONDS     MINUTES      HOURS       DAYS        YEARS
                    -----------------------------------------------------------
   TIME STEP LENGTH  86400.      1440.0      24.000      1.0000     2.73785E-03
 STRESS PERIOD TIME 2.16000E+06  36000.      600.00      25.000     6.84463E-02
         TOTAL TIME 2.24640E+06  37440.      624.00      26.000     7.11841E-02
1

 SOLVING FOR HEAD 

 OUTPUT CONTROL FOR STRESS PERIOD    2   TIME STEP   26
    PRINT HEAD FOR ALL LAYERS
    SAVE HEAD FOR ALL LAYERS
    PRINT BUDGET
    SAVE BUDGET
1
              HEAD IN LAYER   1 AT END OF TIME STEP  26 IN STRESS PERIOD    2
  ---------------------------------------------------------------------------

            1           2           3           4           5           6           7           8           9          10
 ........................................................................................................................
   1    9.991       8.882       7.773       6.664       5.555       4.446       3.338       2.229       1.120      1.1089E-02
   2    9.991       8.882       7.773       6.664       5.555       4.446       3.338       2.229       1.120      1.1089E-02
   3    9.991       8.882       7.773       6.664       5.555       4.446       3.338       2.229       1.120      1.1089E-02
   4    9.991       8.882       7.773       6.664       5.555       4.446       3.338       2.229       1.120      1.1089E-02
   5    9.991       8.882       7.773       6.664       5.555       4.446       3.338       2.229       1.120      1.1089E-02
   6    9.991       8.882       7.773       6.664       5.555       4.446       3.338       2.229       1.120      1.1089E-02
   7    9.991       8.882       7.773       6.664       5.555       4.446       3.338       2.229       1.120      1.1089E-02
   8    9.991       8.882       7.773       6.664       5.555       4.446       3.338       2.229       1.120      1.1089E-02
   9    9.991       8.882       7.773       6.664       5.555       4.446       3.338       2.229       1.120      1.1089E-02
  10    9.991       8.882       7.773       6.664       5.555       4.446       3.338       2.229       1.120      1.1089E-02

 HEAD WILL BE SAVED ON UNIT   51 AT END OF TIME STEP   26, STRESS PERIOD    2
1
  VOLUMETRIC BUDGET FOR ENTIRE MODEL AT END OF TIME STEP   26, STRESS PERIOD   2
  ------------------------------------------------------------------------------

     CUMULATIVE VOLUMES      L**3       RATES FOR THIS TIME STEP      L**3/T
     ------------------                 ------------------------

           IN:                                      IN:
           ---                                      ---
             STORAGE =       24995.3750               STORAGE =       1.5259E-05
       CONSTANT HEAD =           0.0000         CONSTANT HEAD =           0.0000
               WELLS =           0.0000                 WELLS =           0.0000
     HEAD DEP BOUNDS =      136717.7812       HEAD DEP BOUNDS =        5544.0171

            TOTAL IN =      161713.1562              TOTAL IN =        5544.0171

          OUT:                                     OUT:
          ----                                     ----
             STORAGE =           0.0000               STORAGE =           0.0000
       CONSTANT HEAD =           0.0000         CONSTANT HEAD =           0.0000
               WELLS =           0.0000                 WELLS =           0.0000
     HEAD DEP BOUNDS =      161718.1250       HEAD DEP BOUNDS =        5544.2617

           TOTAL OUT =      161718.1250             TOTAL OUT =        5544.2617

            IN - OUT =          -4.9688              IN - OUT =          -0.2446

 PERCENT DISCREPANCY =          -0.00     PERCENT DISCREPANCY =          -0.00






         TIME SUMMARY AT END OF TIME STEP   26 IN STRESS PERIOD    2
                    SECONDS     MINUTES      HOURS       DAYS        YEARS
                    -----------------------------------------------------------
   TIME STEP LENGTH  86400.      1440.0      24.000      1.0000     2.73785E-03
 STRESS PERIOD TIME 2.24640E+06  37440.      624.00      26.000     7.11841E-02
         TOTAL TIME 2.33280E+06  38880.      648.00      27.000     7.39220E-02
1

 SOLVING FOR HEAD 

 OUTPUT CONTROL FOR STRESS PERIOD    2   TIME STEP   27
    PRINT HEAD FOR ALL LAYERS
    SAVE HEAD FOR ALL LAYERS
    PRINT BUDGET
    SAVE BUDGET
1
              HEAD IN LAYER   1 AT END OF TIME STEP  27 IN STRESS PERIOD    2
  ---------------------------------------------------------------------------

            1           2           3           4           5           6           7           8           9          10
 ........................................................................................................................
   1    9.991       8.882       7.773       6.664       5.555       4.446       3.338       2.229       1.120      1.1089E-02
   2    9.991       8.882       7.773       6.664       5.555       4.446       3.338       2.229       1.120      1.1089E-02
   3    9.991       8.882       7.773       6.664       5.555       4.446       3.338       2.229       1.120      1.1089E-02
   4    9.991       8.882       7.773       6.664       5.555       4.446       3.338       2.229       1.120      1.1089E-02
   5    9.991       8.882       7.773       6.664       5.555       4.446       3.338       2.229       1.120      1.1089E-02
   6    9.991       8.882       7.773       6.664       5.555       4.446       3.338       2.229       1.120      1.1089E-02
   7    9.991       8.882       7.773       6.664       5.555       4.446       3.338       2.229       1.120      1.1089E-02
   8    9.991       8.882       7.773       6.664       5.555       4.446       3.338       2.229       1.120      1.1089E-02
   9    9.991       8.882       7.773       6.664       5.555       4.446       3.338       2.229       1.120      1.1089E-02
  10    9.991       8.882       7.773       6.664       5.555       4.446       3.338       2.229       1.120      1.1089E-02

 HEAD WILL BE SAVED ON UNIT   51 AT END OF TIME STEP   27, STRESS PERIOD    2
1
  VOLUMETRIC BUDGET FOR ENTIRE MODEL AT END OF TIME STEP   27, STRESS PERIOD   2
  ------------------------------------------------------------------------------

     CUMULATIVE VOLUMES      L**3       RATES FOR THIS TIME STEP      L**3/T
     ------------------                 ------------------------

           IN:                                      IN:
           ---                                      ---
             STORAGE =       24995.3750               STORAGE =           0.0000
       CONSTANT HEAD =           0.0000         CONSTANT HEAD =           0.0000
               WELLS =           0.0000                 WELLS =           0.0000
     HEAD DEP BOUNDS =      142261.7969       HEAD DEP BOUNDS =        5544.0171

            TOTAL IN =      167257.1719              TOTAL IN =        5544.0171

          OUT:                                     OUT:
          ----                                     ----
             STORAGE =           0.0000               STORAGE =           0.0000
       CONSTANT HEAD =           0.0000         CONSTANT HEAD =           0.0000
               WELLS =           0.0000                 WELLS =           0.0000
     HEAD DEP BOUNDS =      167262.3906       HEAD DEP BOUNDS =        5544.2617

           TOTAL OUT =      167262.3906             TOTAL OUT =        5544.2617

            IN - OUT =          -5.2188              IN - OUT =          -0.2446

 PERCENT DISCREPANCY =          -0.00     PERCENT DISCREPANCY =          -0.00






         TIME SUMMARY AT END OF TIME STEP   27 IN STRESS PERIOD    2
                    SECONDS     MINUTES      HOURS       DAYS        YEARS
                    -----------------------------------------------------------
   TIME STEP LENGTH  86400.      1440.0      24.000      1.0000     2.73785E-03
 STRESS PERIOD TIME 2.33280E+06  38880.      648.00      27.000     7.39220E-02
         TOTAL TIME 2.41920E+06  40320.      672.00      28.000     7.66598E-02
1

 SOLVING FOR HEAD 

 OUTPUT CONTROL FOR STRESS PERIOD    2   TIME STEP   28
    PRINT HEAD FOR ALL LAYERS
    SAVE HEAD FOR ALL LAYERS
    PRINT BUDGET
    SAVE BUDGET
1
              HEAD IN LAYER   1 AT END OF TIME STEP  28 IN STRESS PERIOD    2
  ---------------------------------------------------------------------------

            1           2           3           4           5           6           7           8           9          10
 ........................................................................................................................
   1    9.991       8.882       7.773       6.664       5.555       4.446       3.338       2.229       1.120      1.1089E-02
   2    9.991       8.882       7.773       6.664       5.555       4.446       3.338       2.229       1.120      1.1089E-02
   3    9.991       8.882       7.773       6.664       5.555       4.446       3.338       2.229       1.120      1.1089E-02
   4    9.991       8.882       7.773       6.664       5.555       4.446       3.338       2.229       1.120      1.1089E-02
   5    9.991       8.882       7.773       6.664       5.555       4.446       3.338       2.229       1.120      1.1089E-02
   6    9.991       8.882       7.773       6.664       5.555       4.446       3.338       2.229       1.120      1.1089E-02
   7    9.991       8.882       7.773       6.664       5.555       4.446       3.338       2.229       1.120      1.1089E-02
   8    9.991       8.882       7.773       6.664       5.555       4.446       3.338       2.229       1.120      1.1089E-02
   9    9.991       8.882       7.773       6.664       5.555       4.446       3.338       2.229       1.120      1.1089E-02
  10    9.991       8.882       7.773       6.664       5.555       4.446       3.338       2.229       1.120      1.1089E-02

 HEAD WILL BE SAVED ON UNIT   51 AT END OF TIME STEP   28, STRESS PERIOD    2
1
  VOLUMETRIC BUDGET FOR ENTIRE MODEL AT END OF TIME STEP   28, STRESS PERIOD   2
  ------------------------------------------------------------------------------

     CUMULATIVE VOLUMES      L**3       RATES FOR THIS TIME STEP      L**3/T
     ------------------                 ------------------------

           IN:                                      IN:
           ---                                      ---
             STORAGE =       24995.3750               STORAGE =           0.0000
       CONSTANT HEAD =           0.0000         CONSTANT HEAD =           0.0000
               WELLS =           0.0000                 WELLS =           0.0000
     HEAD DEP BOUNDS =      147805.8125       HEAD DEP BOUNDS =        5544.0171

            TOTAL IN =      172801.1875              TOTAL IN =        5544.0171

          OUT:                                     OUT:
          ----                                     ----
             STORAGE =           0.0000               STORAGE =           0.0000
       CONSTANT HEAD =           0.0000         CONSTANT HEAD =           0.0000
               WELLS =           0.0000                 WELLS =           0.0000
     HEAD DEP BOUNDS =      172806.6562       HEAD DEP BOUNDS =        5544.2617

           TOTAL OUT =      172806.6562             TOTAL OUT =        5544.2617

            IN - OUT =          -5.4688              IN - OUT =          -0.2446

 PERCENT DISCREPANCY =          -0.00     PERCENT DISCREPANCY =          -0.00






         TIME SUMMARY AT END OF TIME STEP   28 IN STRESS PERIOD    2
                    SECONDS     MINUTES      HOURS       DAYS        YEARS
                    -----------------------------------------------------------
   TIME STEP LENGTH  86400.      1440.0      24.000      1.0000     2.73785E-03
 STRESS PERIOD TIME 2.41920E+06  40320.      672.00      28.000     7.66598E-02
         TOTAL TIME 2.50560E+06  41760.      696.00      29.000     7.93977E-02
1

 SOLVING FOR HEAD 

 OUTPUT CONTROL FOR STRESS PERIOD    2   TIME STEP   29
    PRINT HEAD FOR ALL LAYERS
    SAVE HEAD FOR ALL LAYERS
    PRINT BUDGET
    SAVE BUDGET
1
              HEAD IN LAYER   1 AT END OF TIME STEP  29 IN STRESS PERIOD    2
  ---------------------------------------------------------------------------

            1           2           3           4           5           6           7           8           9          10
 ........................................................................................................................
   1    9.991       8.882       7.773       6.664       5.555       4.446       3.338       2.229       1.120      1.1089E-02
   2    9.991       8.882       7.773       6.664       5.555       4.446       3.338       2.229       1.120      1.1089E-02
   3    9.991       8.882       7.773       6.664       5.555       4.446       3.338       2.229       1.120      1.1089E-02
   4    9.991       8.882       7.773       6.664       5.555       4.446       3.338       2.229       1.120      1.1089E-02
   5    9.991       8.882       7.773       6.664       5.555       4.446       3.338       2.229       1.120      1.1089E-02
   6    9.991       8.882       7.773       6.664       5.555       4.446       3.338       2.229       1.120      1.1089E-02
   7    9.991       8.882       7.773       6.664       5.555       4.446       3.338       2.229       1.120      1.1089E-02
   8    9.991       8.882       7.773       6.664       5.555       4.446       3.338       2.229       1.120      1.1089E-02
   9    9.991       8.882       7.773       6.664       5.555       4.446       3.338       2.229       1.120      1.1089E-02
  10    9.991       8.882       7.773       6.664       5.555       4.446       3.338       2.229       1.120      1.1089E-02

 HEAD WILL BE SAVED ON UNIT   51 AT END OF TIME STEP   29, STRESS PERIOD    2
1
  VOLUMETRIC BUDGET FOR ENTIRE MODEL AT END OF TIME STEP   29, STRESS PERIOD   2
  ------------------------------------------------------------------------------

     CUMULATIVE VOLUMES      L**3       RATES FOR THIS TIME STEP      L**3/T
     ------------------                 ------------------------

           IN:                                      IN:
           ---                                      ---
             STORAGE =       24995.3750               STORAGE =           0.0000
       CONSTANT HEAD =           0.0000         CONSTANT HEAD =           0.0000
               WELLS =           0.0000                 WELLS =           0.0000
     HEAD DEP BOUNDS =      153349.8281       HEAD DEP BOUNDS =        5544.0171

            TOTAL IN =      178345.2031              TOTAL IN =        5544.0171

          OUT:                                     OUT:
          ----                                     ----
             STORAGE =           0.0000               STORAGE =           0.0000
       CONSTANT HEAD =           0.0000         CONSTANT HEAD =           0.0000
               WELLS =           0.0000                 WELLS =           0.0000
     HEAD DEP BOUNDS =      178350.9219       HEAD DEP BOUNDS =        5544.2617

           TOTAL OUT =      178350.9219             TOTAL OUT =        5544.2617

            IN - OUT =          -5.7188              IN - OUT =          -0.2446

 PERCENT DISCREPANCY =          -0.00     PERCENT DISCREPANCY =          -0.00






         TIME SUMMARY AT END OF TIME STEP   29 IN STRESS PERIOD    2
                    SECONDS     MINUTES      HOURS       DAYS        YEARS
                    -----------------------------------------------------------
   TIME STEP LENGTH  86400.      1440.0      24.000      1.0000     2.73785E-03
 STRESS PERIOD TIME 2.50560E+06  41760.      696.00      29.000     7.93977E-02
         TOTAL TIME 2.59200E+06  43200.      720.00      30.000     8.21355E-02
1

 SOLVING FOR HEAD 

 OUTPUT CONTROL FOR STRESS PERIOD    2   TIME STEP   30
    PRINT HEAD FOR ALL LAYERS
    SAVE HEAD FOR ALL LAYERS
    PRINT BUDGET
    SAVE BUDGET
1
              HEAD IN LAYER   1 AT END OF TIME STEP  30 IN STRESS PERIOD    2
  ---------------------------------------------------------------------------

            1           2           3           4           5           6           7           8           9          10
 ........................................................................................................................
   1    9.991       8.882       7.773       6.664       5.555       4.446       3.338       2.229       1.120      1.1089E-02
   2    9.991       8.882       7.773       6.664       5.555       4.446       3.338       2.229       1.120      1.1089E-02
   3    9.991       8.882       7.773       6.664       5.555       4.446       3.338       2.229       1.120      1.1089E-02
   4    9.991       8.882       7.773       6.664       5.555       4.446       3.338       2.229       1.120      1.1089E-02
   5    9.991       8.882       7.773       6.664       5.555       4.446       3.338       2.229       1.120      1.1089E-02
   6    9.991       8.882       7.773       6.664       5.555       4.446       3.338       2.229       1.120      1.1089E-02
   7    9.991       8.882       7.773       6.664       5.555       4.446       3.338       2.229       1.120      1.1089E-02
   8    9.991       8.882       7.773       6.664       5.555       4.446       3.338       2.229       1.120      1.1089E-02
   9    9.991       8.882       7.773       6.664       5.555       4.446       3.338       2.229       1.120      1.1089E-02
  10    9.991       8.882       7.773       6.664       5.555       4.446       3.338       2.229       1.120      1.1089E-02

 HEAD WILL BE SAVED ON UNIT   51 AT END OF TIME STEP   30, STRESS PERIOD    2
1
  VOLUMETRIC BUDGET FOR ENTIRE MODEL AT END OF TIME STEP   30, STRESS PERIOD   2
  ------------------------------------------------------------------------------

     CUMULATIVE VOLUMES      L**3       RATES FOR THIS TIME STEP      L**3/T
     ------------------                 ------------------------

           IN:                                      IN:
           ---                                      ---
             STORAGE =       24995.3750               STORAGE =           0.0000
       CONSTANT HEAD =           0.0000         CONSTANT HEAD =           0.0000
               WELLS =           0.0000                 WELLS =           0.0000
     HEAD DEP BOUNDS =      158893.8438       HEAD DEP BOUNDS =        5544.0171

            TOTAL IN =      183889.2188              TOTAL IN =        5544.0171

          OUT:                                     OUT:
          ----                                     ----
             STORAGE =           0.0000               STORAGE =           0.0000
       CONSTANT HEAD =           0.0000         CONSTANT HEAD =           0.0000
               WELLS =           0.0000                 WELLS =           0.0000
     HEAD DEP BOUNDS =      183895.1875       HEAD DEP BOUNDS =        5544.2617

           TOTAL OUT =      183895.1875             TOTAL OUT =        5544.2617

            IN - OUT =          -5.9688              IN - OUT =          -0.2446

 PERCENT DISCREPANCY =          -0.00     PERCENT DISCREPANCY =          -0.00






         TIME SUMMARY AT END OF TIME STEP   30 IN STRESS PERIOD    2
                    SECONDS     MINUTES      HOURS       DAYS        YEARS
                    -----------------------------------------------------------
   TIME STEP LENGTH  86400.      1440.0      24.000      1.0000     2.73785E-03
 STRESS PERIOD TIME 2.59200E+06  43200.      720.00      30.000     8.21355E-02
         TOTAL TIME 2.67840E+06  44640.      744.00      31.000     8.48734E-02
1

 SOLVING FOR HEAD 

 OUTPUT CONTROL FOR STRESS PERIOD    2   TIME STEP   31
    PRINT HEAD FOR ALL LAYERS
    SAVE HEAD FOR ALL LAYERS
    PRINT BUDGET
    SAVE BUDGET
1
              HEAD IN LAYER   1 AT END OF TIME STEP  31 IN STRESS PERIOD    2
  ---------------------------------------------------------------------------

            1           2           3           4           5           6           7           8           9          10
 ........................................................................................................................
   1    9.991       8.882       7.773       6.664       5.555       4.446       3.338       2.229       1.120      1.1089E-02
   2    9.991       8.882       7.773       6.664       5.555       4.446       3.338       2.229       1.120      1.1089E-02
   3    9.991       8.882       7.773       6.664       5.555       4.446       3.338       2.229       1.120      1.1089E-02
   4    9.991       8.882       7.773       6.664       5.555       4.446       3.338       2.229       1.120      1.1089E-02
   5    9.991       8.882       7.773       6.664       5.555       4.446       3.338       2.229       1.120      1.1089E-02
   6    9.991       8.882       7.773       6.664       5.555       4.446       3.338       2.229       1.120      1.1089E-02
   7    9.991       8.882       7.773       6.664       5.555       4.446       3.338       2.229       1.120      1.1089E-02
   8    9.991       8.882       7.773       6.664       5.555       4.446       3.338       2.229       1.120      1.1089E-02
   9    9.991       8.882       7.773       6.664       5.555       4.446       3.338       2.229       1.120      1.1089E-02
  10    9.991       8.882       7.773       6.664       5.555       4.446       3.338       2.229       1.120      1.1089E-02

 HEAD WILL BE SAVED ON UNIT   51 AT END OF TIME STEP   31, STRESS PERIOD    2
1
  VOLUMETRIC BUDGET FOR ENTIRE MODEL AT END OF TIME STEP   31, STRESS PERIOD   2
  ------------------------------------------------------------------------------

     CUMULATIVE VOLUMES      L**3       RATES FOR THIS TIME STEP      L**3/T
     ------------------                 ------------------------

           IN:                                      IN:
           ---                                      ---
             STORAGE =       24995.3750               STORAGE =           0.0000
       CONSTANT HEAD =           0.0000         CONSTANT HEAD =           0.0000
               WELLS =           0.0000                 WELLS =           0.0000
     HEAD DEP BOUNDS =      164437.8594       HEAD DEP BOUNDS =        5544.0171

            TOTAL IN =      189433.2344              TOTAL IN =        5544.0171

          OUT:                                     OUT:
          ----                                     ----
             STORAGE =           0.0000               STORAGE =           0.0000
       CONSTANT HEAD =           0.0000         CONSTANT HEAD =           0.0000
               WELLS =           0.0000                 WELLS =           0.0000
     HEAD DEP BOUNDS =      189439.4531       HEAD DEP BOUNDS =        5544.2617

           TOTAL OUT =      189439.4531             TOTAL OUT =        5544.2617

            IN - OUT =          -6.2188              IN - OUT =          -0.2446

 PERCENT DISCREPANCY =          -0.00     PERCENT DISCREPANCY =          -0.00






         TIME SUMMARY AT END OF TIME STEP   31 IN STRESS PERIOD    2
                    SECONDS     MINUTES      HOURS       DAYS        YEARS
                    -----------------------------------------------------------
   TIME STEP LENGTH  86400.      1440.0      24.000      1.0000     2.73785E-03
 STRESS PERIOD TIME 2.67840E+06  44640.      744.00      31.000     8.48734E-02
         TOTAL TIME 2.76480E+06  46080.      768.00      32.000     8.76112E-02
1

 SOLVING FOR HEAD 

 OUTPUT CONTROL FOR STRESS PERIOD    2   TIME STEP   32
    PRINT HEAD FOR ALL LAYERS
    SAVE HEAD FOR ALL LAYERS
    PRINT BUDGET
    SAVE BUDGET
1
              HEAD IN LAYER   1 AT END OF TIME STEP  32 IN STRESS PERIOD    2
  ---------------------------------------------------------------------------

            1           2           3           4           5           6           7           8           9          10
 ........................................................................................................................
   1    9.991       8.882       7.773       6.664       5.555       4.446       3.338       2.229       1.120      1.1089E-02
   2    9.991       8.882       7.773       6.664       5.555       4.446       3.338       2.229       1.120      1.1089E-02
   3    9.991       8.882       7.773       6.664       5.555       4.446       3.338       2.229       1.120      1.1089E-02
   4    9.991       8.882       7.773       6.664       5.555       4.446       3.338       2.229       1.120      1.1089E-02
   5    9.991       8.882       7.773       6.664       5.555       4.446       3.338       2.229       1.120      1.1089E-02
   6    9.991       8.882       7.773       6.664       5.555       4.446       3.338       2.229       1.120      1.1089E-02
   7    9.991       8.882       7.773       6.664       5.555       4.446       3.338       2.229       1.120      1.1089E-02
   8    9.991       8.882       7.773       6.664       5.555       4.446       3.338       2.229       1.120      1.1089E-02
   9    9.991       8.882       7.773       6.664       5.555       4.446       3.338       2.229       1.120      1.1089E-02
  10    9.991       8.882       7.773       6.664       5.555       4.446       3.338       2.229       1.120      1.1089E-02

 HEAD WILL BE SAVED ON UNIT   51 AT END OF TIME STEP   32, STRESS PERIOD    2
1
  VOLUMETRIC BUDGET FOR ENTIRE MODEL AT END OF TIME STEP   32, STRESS PERIOD   2
  ------------------------------------------------------------------------------

     CUMULATIVE VOLUMES      L**3       RATES FOR THIS TIME STEP      L**3/T
     ------------------                 ------------------------

           IN:                                      IN:
           ---                                      ---
             STORAGE =       24995.3750               STORAGE =           0.0000
       CONSTANT HEAD =           0.0000         CONSTANT HEAD =           0.0000
               WELLS =           0.0000                 WELLS =           0.0000
     HEAD DEP BOUNDS =      169981.8750       HEAD DEP BOUNDS =        5544.0171

            TOTAL IN =      194977.2500              TOTAL IN =        5544.0171

          OUT:                                     OUT:
          ----                                     ----
             STORAGE =           0.0000               STORAGE =           0.0000
       CONSTANT HEAD =           0.0000         CONSTANT HEAD =           0.0000
               WELLS =           0.0000                 WELLS =           0.0000
     HEAD DEP BOUNDS =      194983.7188       HEAD DEP BOUNDS =        5544.2617

           TOTAL OUT =      194983.7188             TOTAL OUT =        5544.2617

            IN - OUT =          -6.4688              IN - OUT =          -0.2446

 PERCENT DISCREPANCY =          -0.00     PERCENT DISCREPANCY =          -0.00






         TIME SUMMARY AT END OF TIME STEP   32 IN STRESS PERIOD    2
                    SECONDS     MINUTES      HOURS       DAYS        YEARS
                    -----------------------------------------------------------
   TIME STEP LENGTH  86400.      1440.0      24.000      1.0000     2.73785E-03
 STRESS PERIOD TIME 2.76480E+06  46080.      768.00      32.000     8.76112E-02
         TOTAL TIME 2.85120E+06  47520.      792.00      33.000     9.03491E-02
1

 SOLVING FOR HEAD 

 OUTPUT CONTROL FOR STRESS PERIOD    2   TIME STEP   33
    PRINT HEAD FOR ALL LAYERS
    SAVE HEAD FOR ALL LAYERS
    PRINT BUDGET
    SAVE BUDGET
1
              HEAD IN LAYER   1 AT END OF TIME STEP  33 IN STRESS PERIOD    2
  ---------------------------------------------------------------------------

            1           2           3           4           5           6           7           8           9          10
 ........................................................................................................................
   1    9.991       8.882       7.773       6.664       5.555       4.446       3.338       2.229       1.120      1.1089E-02
   2    9.991       8.882       7.773       6.664       5.555       4.446       3.338       2.229       1.120      1.1089E-02
   3    9.991       8.882       7.773       6.664       5.555       4.446       3.338       2.229       1.120      1.1089E-02
   4    9.991       8.882       7.773       6.664       5.555       4.446       3.338       2.229       1.120      1.1089E-02
   5    9.991       8.882       7.773       6.664       5.555       4.446       3.338       2.229       1.120      1.1089E-02
   6    9.991       8.882       7.773       6.664       5.555       4.446       3.338       2.229       1.120      1.1089E-02
   7    9.991       8.882       7.773       6.664       5.555       4.446       3.338       2.229       1.120      1.1089E-02
   8    9.991       8.882       7.773       6.664       5.555       4.446       3.338       2.229       1.120      1.1089E-02
   9    9.991       8.882       7.773       6.664       5.555       4.446       3.338       2.229       1.120      1.1089E-02
  10    9.991       8.882       7.773       6.664       5.555       4.446       3.338       2.229       1.120      1.1089E-02

 HEAD WILL BE SAVED ON UNIT   51 AT END OF TIME STEP   33, STRESS PERIOD    2
1
  VOLUMETRIC BUDGET FOR ENTIRE MODEL AT END OF TIME STEP   33, STRESS PERIOD   2
  ------------------------------------------------------------------------------

     CUMULATIVE VOLUMES      L**3       RATES FOR THIS TIME STEP      L**3/T
     ------------------                 ------------------------

           IN:                                      IN:
           ---                                      ---
             STORAGE =       24995.3750               STORAGE =           0.0000
       CONSTANT HEAD =           0.0000         CONSTANT HEAD =           0.0000
               WELLS =           0.0000                 WELLS =           0.0000
     HEAD DEP BOUNDS =      175525.8906       HEAD DEP BOUNDS =        5544.0171

            TOTAL IN =      200521.2656              TOTAL IN =        5544.0171

          OUT:                                     OUT:
          ----                                     ----
             STORAGE =           0.0000               STORAGE =           0.0000
       CONSTANT HEAD =           0.0000         CONSTANT HEAD =           0.0000
               WELLS =           0.0000                 WELLS =           0.0000
     HEAD DEP BOUNDS =      200527.9844       HEAD DEP BOUNDS =        5544.2617

           TOTAL OUT =      200527.9844             TOTAL OUT =        5544.2617

            IN - OUT =          -6.7188              IN - OUT =          -0.2446

 PERCENT DISCREPANCY =          -0.00     PERCENT DISCREPANCY =          -0.00






         TIME SUMMARY AT END OF TIME STEP   33 IN STRESS PERIOD    2
                    SECONDS     MINUTES      HOURS       DAYS        YEARS
                    -----------------------------------------------------------
   TIME STEP LENGTH  86400.      1440.0      24.000      1.0000     2.73785E-03
 STRESS PERIOD TIME 2.85120E+06  47520.      792.00      33.000     9.03491E-02
         TOTAL TIME 2.93760E+06  48960.      816.00      34.000     9.30869E-02
1

 SOLVING FOR HEAD 

 OUTPUT CONTROL FOR STRESS PERIOD    2   TIME STEP   34
    PRINT HEAD FOR ALL LAYERS
    SAVE HEAD FOR ALL LAYERS
    PRINT BUDGET
    SAVE BUDGET
1
              HEAD IN LAYER   1 AT END OF TIME STEP  34 IN STRESS PERIOD    2
  ---------------------------------------------------------------------------

            1           2           3           4           5           6           7           8           9          10
 ........................................................................................................................
   1    9.991       8.882       7.773       6.664       5.555       4.446       3.338       2.229       1.120      1.1089E-02
   2    9.991       8.882       7.773       6.664       5.555       4.446       3.338       2.229       1.120      1.1089E-02
   3    9.991       8.882       7.773       6.664       5.555       4.446       3.338       2.229       1.120      1.1089E-02
   4    9.991       8.882       7.773       6.664       5.555       4.446       3.338       2.229       1.120      1.1089E-02
   5    9.991       8.882       7.773       6.664       5.555       4.446       3.338       2.229       1.120      1.1089E-02
   6    9.991       8.882       7.773       6.664       5.555       4.446       3.338       2.229       1.120      1.1089E-02
   7    9.991       8.882       7.773       6.664       5.555       4.446       3.338       2.229       1.120      1.1089E-02
   8    9.991       8.882       7.773       6.664       5.555       4.446       3.338       2.229       1.120      1.1089E-02
   9    9.991       8.882       7.773       6.664       5.555       4.446       3.338       2.229       1.120      1.1089E-02
  10    9.991       8.882       7.773       6.664       5.555       4.446       3.338       2.229       1.120      1.1089E-02

 HEAD WILL BE SAVED ON UNIT   51 AT END OF TIME STEP   34, STRESS PERIOD    2
1
  VOLUMETRIC BUDGET FOR ENTIRE MODEL AT END OF TIME STEP   34, STRESS PERIOD   2
  ------------------------------------------------------------------------------

     CUMULATIVE VOLUMES      L**3       RATES FOR THIS TIME STEP      L**3/T
     ------------------                 ------------------------

           IN:                                      IN:
           ---                                      ---
             STORAGE =       24995.3750               STORAGE =           0.0000
       CONSTANT HEAD =           0.0000         CONSTANT HEAD =           0.0000
               WELLS =           0.0000                 WELLS =           0.0000
     HEAD DEP BOUNDS =      181069.9062       HEAD DEP BOUNDS =        5544.0171

            TOTAL IN =      206065.2812              TOTAL IN =        5544.0171

          OUT:                                     OUT:
          ----                                     ----
             STORAGE =           0.0000               STORAGE =           0.0000
       CONSTANT HEAD =           0.0000         CONSTANT HEAD =           0.0000
               WELLS =           0.0000                 WELLS =           0.0000
     HEAD DEP BOUNDS =      206072.2500       HEAD DEP BOUNDS =        5544.2617

           TOTAL OUT =      206072.2500             TOTAL OUT =        5544.2617

            IN - OUT =          -6.9688              IN - OUT =          -0.2446

 PERCENT DISCREPANCY =          -0.00     PERCENT DISCREPANCY =          -0.00






         TIME SUMMARY AT END OF TIME STEP   34 IN STRESS PERIOD    2
                    SECONDS     MINUTES      HOURS       DAYS        YEARS
                    -----------------------------------------------------------
   TIME STEP LENGTH  86400.      1440.0      24.000      1.0000     2.73785E-03
 STRESS PERIOD TIME 2.93760E+06  48960.      816.00      34.000     9.30869E-02
         TOTAL TIME 3.02400E+06  50400.      840.00      35.000     9.58248E-02
1

 SOLVING FOR HEAD 

 OUTPUT CONTROL FOR STRESS PERIOD    2   TIME STEP   35
    PRINT HEAD FOR ALL LAYERS
    SAVE HEAD FOR ALL LAYERS
    PRINT BUDGET
    SAVE BUDGET
1
              HEAD IN LAYER   1 AT END OF TIME STEP  35 IN STRESS PERIOD    2
  ---------------------------------------------------------------------------

            1           2           3           4           5           6           7           8           9          10
 ........................................................................................................................
   1    9.991       8.882       7.773       6.664       5.555       4.446       3.338       2.229       1.120      1.1089E-02
   2    9.991       8.882       7.773       6.664       5.555       4.446       3.338       2.229       1.120      1.1089E-02
   3    9.991       8.882       7.773       6.664       5.555       4.446       3.338       2.229       1.120      1.1089E-02
   4    9.991       8.882       7.773       6.664       5.555       4.446       3.338       2.229       1.120      1.1089E-02
   5    9.991       8.882       7.773       6.664       5.555       4.446       3.338       2.229       1.120      1.1089E-02
   6    9.991       8.882       7.773       6.664       5.555       4.446       3.338       2.229       1.120      1.1089E-02
   7    9.991       8.882       7.773       6.664       5.555       4.446       3.338       2.229       1.120      1.1089E-02
   8    9.991       8.882       7.773       6.664       5.555       4.446       3.338       2.229       1.120      1.1089E-02
   9    9.991       8.882       7.773       6.664       5.555       4.446       3.338       2.229       1.120      1.1089E-02
  10    9.991       8.882       7.773       6.664       5.555       4.446       3.338       2.229       1.120      1.1089E-02

 HEAD WILL BE SAVED ON UNIT   51 AT END OF TIME STEP   35, STRESS PERIOD    2
1
  VOLUMETRIC BUDGET FOR ENTIRE MODEL AT END OF TIME STEP   35, STRESS PERIOD   2
  ------------------------------------------------------------------------------

     CUMULATIVE VOLUMES      L**3       RATES FOR THIS TIME STEP      L**3/T
     ------------------                 ------------------------

           IN:                                      IN:
           ---                                      ---
             STORAGE =       24995.3750               STORAGE =           0.0000
       CONSTANT HEAD =           0.0000         CONSTANT HEAD =           0.0000
               WELLS =           0.0000                 WELLS =           0.0000
     HEAD DEP BOUNDS =      186613.9219       HEAD DEP BOUNDS =        5544.0171

            TOTAL IN =      211609.2969              TOTAL IN =        5544.0171

          OUT:                                     OUT:
          ----                                     ----
             STORAGE =           0.0000               STORAGE =           0.0000
       CONSTANT HEAD =           0.0000         CONSTANT HEAD =           0.0000
               WELLS =           0.0000                 WELLS =           0.0000
     HEAD DEP BOUNDS =      211616.5156       HEAD DEP BOUNDS =        5544.2617

           TOTAL OUT =      211616.5156             TOTAL OUT =        5544.2617

            IN - OUT =          -7.2188              IN - OUT =          -0.2446

 PERCENT DISCREPANCY =          -0.00     PERCENT DISCREPANCY =          -0.00






         TIME SUMMARY AT END OF TIME STEP   35 IN STRESS PERIOD    2
                    SECONDS     MINUTES      HOURS       DAYS        YEARS
                    -----------------------------------------------------------
   TIME STEP LENGTH  86400.      1440.0      24.000      1.0000     2.73785E-03
 STRESS PERIOD TIME 3.02400E+06  50400.      840.00      35.000     9.58248E-02
         TOTAL TIME 3.11040E+06  51840.      864.00      36.000     9.85626E-02
1

 SOLVING FOR HEAD 

 OUTPUT CONTROL FOR STRESS PERIOD    2   TIME STEP   36
    PRINT HEAD FOR ALL LAYERS
    SAVE HEAD FOR ALL LAYERS
    PRINT BUDGET
    SAVE BUDGET
1
              HEAD IN LAYER   1 AT END OF TIME STEP  36 IN STRESS PERIOD    2
  ---------------------------------------------------------------------------

            1           2           3           4           5           6           7           8           9          10
 ........................................................................................................................
   1    9.991       8.882       7.773       6.664       5.555       4.446       3.338       2.229       1.120      1.1089E-02
   2    9.991       8.882       7.773       6.664       5.555       4.446       3.338       2.229       1.120      1.1089E-02
   3    9.991       8.882       7.773       6.664       5.555       4.446       3.338       2.229       1.120      1.1089E-02
   4    9.991       8.882       7.773       6.664       5.555       4.446       3.338       2.229       1.120      1.1089E-02
   5    9.991       8.882       7.773       6.664       5.555       4.446       3.338       2.229       1.120      1.1089E-02
   6    9.991       8.882       7.773       6.664       5.555       4.446       3.338       2.229       1.120      1.1089E-02
   7    9.991       8.882       7.773       6.664       5.555       4.446       3.338       2.229       1.120      1.1089E-02
   8    9.991       8.882       7.773       6.664       5.555       4.446       3.338       2.229       1.120      1.1089E-02
   9    9.991       8.882       7.773       6.664       5.555       4.446       3.338       2.229       1.120      1.1089E-02
  10    9.991       8.882       7.773       6.664       5.555       4.446       3.338       2.229       1.120      1.1089E-02

 HEAD WILL BE SAVED ON UNIT   51 AT END OF TIME STEP   36, STRESS PERIOD    2
1
  VOLUMETRIC BUDGET FOR ENTIRE MODEL AT END OF TIME STEP   36, STRESS PERIOD   2
  ------------------------------------------------------------------------------

     CUMULATIVE VOLUMES      L**3       RATES FOR THIS TIME STEP      L**3/T
     ------------------                 ------------------------

           IN:                                      IN:
           ---                                      ---
             STORAGE =       24995.3750               STORAGE =           0.0000
       CONSTANT HEAD =           0.0000         CONSTANT HEAD =           0.0000
               WELLS =           0.0000                 WELLS =           0.0000
     HEAD DEP BOUNDS =      192157.9375       HEAD DEP BOUNDS =        5544.0171

            TOTAL IN =      217153.3125              TOTAL IN =        5544.0171

          OUT:                                     OUT:
          ----                                     ----
             STORAGE =           0.0000               STORAGE =           0.0000
       CONSTANT HEAD =           0.0000         CONSTANT HEAD =           0.0000
               WELLS =           0.0000                 WELLS =           0.0000
     HEAD DEP BOUNDS =      217160.7812       HEAD DEP BOUNDS =        5544.2617

           TOTAL OUT =      217160.7812             TOTAL OUT =        5544.2617

            IN - OUT =          -7.4688              IN - OUT =          -0.2446

 PERCENT DISCREPANCY =          -0.00     PERCENT DISCREPANCY =          -0.00






         TIME SUMMARY AT END OF TIME STEP   36 IN STRESS PERIOD    2
                    SECONDS     MINUTES      HOURS       DAYS        YEARS
                    -----------------------------------------------------------
   TIME STEP LENGTH  86400.      1440.0      24.000      1.0000     2.73785E-03
 STRESS PERIOD TIME 3.11040E+06  51840.      864.00      36.000     9.85626E-02
         TOTAL TIME 3.19680E+06  53280.      888.00      37.000     0.10130    
1

 SOLVING FOR HEAD 

 OUTPUT CONTROL FOR STRESS PERIOD    2   TIME STEP   37
    PRINT HEAD FOR ALL LAYERS
    SAVE HEAD FOR ALL LAYERS
    PRINT BUDGET
    SAVE BUDGET
1
              HEAD IN LAYER   1 AT END OF TIME STEP  37 IN STRESS PERIOD    2
  ---------------------------------------------------------------------------

            1           2           3           4           5           6           7           8           9          10
 ........................................................................................................................
   1    9.991       8.882       7.773       6.664       5.555       4.446       3.338       2.229       1.120      1.1089E-02
   2    9.991       8.882       7.773       6.664       5.555       4.446       3.338       2.229       1.120      1.1089E-02
   3    9.991       8.882       7.773       6.664       5.555       4.446       3.338       2.229       1.120      1.1089E-02
   4    9.991       8.882       7.773       6.664       5.555       4.446       3.338       2.229       1.120      1.1089E-02
   5    9.991       8.882       7.773       6.664       5.555       4.446       3.338       2.229       1.120      1.1089E-02
   6    9.991       8.882       7.773       6.664       5.555       4.446       3.338       2.229       1.120      1.1089E-02
   7    9.991       8.882       7.773       6.664       5.555       4.446       3.338       2.229       1.120      1.1089E-02
   8    9.991       8.882       7.773       6.664       5.555       4.446       3.338       2.229       1.120      1.1089E-02
   9    9.991       8.882       7.773       6.664       5.555       4.446       3.338       2.229       1.120      1.1089E-02
  10    9.991       8.882       7.773       6.664       5.555       4.446       3.338       2.229       1.120      1.1089E-02

 HEAD WILL BE SAVED ON UNIT   51 AT END OF TIME STEP   37, STRESS PERIOD    2
1
  VOLUMETRIC BUDGET FOR ENTIRE MODEL AT END OF TIME STEP   37, STRESS PERIOD   2
  ------------------------------------------------------------------------------

     CUMULATIVE VOLUMES      L**3       RATES FOR THIS TIME STEP      L**3/T
     ------------------                 ------------------------

           IN:                                      IN:
           ---                                      ---
             STORAGE =       24995.3750               STORAGE =           0.0000
       CONSTANT HEAD =           0.0000         CONSTANT HEAD =           0.0000
               WELLS =           0.0000                 WELLS =           0.0000
     HEAD DEP BOUNDS =      197701.9531       HEAD DEP BOUNDS =        5544.0171

            TOTAL IN =      222697.3281              TOTAL IN =        5544.0171

          OUT:                                     OUT:
          ----                                     ----
             STORAGE =           0.0000               STORAGE =           0.0000
       CONSTANT HEAD =           0.0000         CONSTANT HEAD =           0.0000
               WELLS =           0.0000                 WELLS =           0.0000
     HEAD DEP BOUNDS =      222705.0469       HEAD DEP BOUNDS =        5544.2617

           TOTAL OUT =      222705.0469             TOTAL OUT =        5544.2617

            IN - OUT =          -7.7188              IN - OUT =          -0.2446

 PERCENT DISCREPANCY =          -0.00     PERCENT DISCREPANCY =          -0.00






         TIME SUMMARY AT END OF TIME STEP   37 IN STRESS PERIOD    2
                    SECONDS     MINUTES      HOURS       DAYS        YEARS
                    -----------------------------------------------------------
   TIME STEP LENGTH  86400.      1440.0      24.000      1.0000     2.73785E-03
 STRESS PERIOD TIME 3.19680E+06  53280.      888.00      37.000     0.10130    
         TOTAL TIME 3.28320E+06  54720.      912.00      38.000     0.10404    
1

 SOLVING FOR HEAD 

 OUTPUT CONTROL FOR STRESS PERIOD    2   TIME STEP   38
    PRINT HEAD FOR ALL LAYERS
    SAVE HEAD FOR ALL LAYERS
    PRINT BUDGET
    SAVE BUDGET
1
              HEAD IN LAYER   1 AT END OF TIME STEP  38 IN STRESS PERIOD    2
  ---------------------------------------------------------------------------

            1           2           3           4           5           6           7           8           9          10
 ........................................................................................................................
   1    9.991       8.882       7.773       6.664       5.555       4.446       3.338       2.229       1.120      1.1089E-02
   2    9.991       8.882       7.773       6.664       5.555       4.446       3.338       2.229       1.120      1.1089E-02
   3    9.991       8.882       7.773       6.664       5.555       4.446       3.338       2.229       1.120      1.1089E-02
   4    9.991       8.882       7.773       6.664       5.555       4.446       3.338       2.229       1.120      1.1089E-02
   5    9.991       8.882       7.773       6.664       5.555       4.446       3.338       2.229       1.120      1.1089E-02
   6    9.991       8.882       7.773       6.664       5.555       4.446       3.338       2.229       1.120      1.1089E-02
   7    9.991       8.882       7.773       6.664       5.555       4.446       3.338       2.229       1.120      1.1089E-02
   8    9.991       8.882       7.773       6.664       5.555       4.446       3.338       2.229       1.120      1.1089E-02
   9    9.991       8.882       7.773       6.664       5.555       4.446       3.338       2.229       1.120      1.1089E-02
  10    9.991       8.882       7.773       6.664       5.555       4.446       3.338       2.229       1.120      1.1089E-02

 HEAD WILL BE SAVED ON UNIT   51 AT END OF TIME STEP   38, STRESS PERIOD    2
1
  VOLUMETRIC BUDGET FOR ENTIRE MODEL AT END OF TIME STEP   38, STRESS PERIOD   2
  ------------------------------------------------------------------------------

     CUMULATIVE VOLUMES      L**3       RATES FOR THIS TIME STEP      L**3/T
     ------------------                 ------------------------

           IN:                                      IN:
           ---                                      ---
             STORAGE =       24995.3750               STORAGE =           0.0000
       CONSTANT HEAD =           0.0000         CONSTANT HEAD =           0.0000
               WELLS =           0.0000                 WELLS =           0.0000
     HEAD DEP BOUNDS =      203245.9688       HEAD DEP BOUNDS =        5544.0171

            TOTAL IN =      228241.3438              TOTAL IN =        5544.0171

          OUT:                                     OUT:
          ----                                     ----
             STORAGE =           0.0000               STORAGE =           0.0000
       CONSTANT HEAD =           0.0000         CONSTANT HEAD =           0.0000
               WELLS =           0.0000                 WELLS =           0.0000
     HEAD DEP BOUNDS =      228249.3125       HEAD DEP BOUNDS =        5544.2617

           TOTAL OUT =      228249.3125             TOTAL OUT =        5544.2617

            IN - OUT =          -7.9688              IN - OUT =          -0.2446

 PERCENT DISCREPANCY =          -0.00     PERCENT DISCREPANCY =          -0.00






         TIME SUMMARY AT END OF TIME STEP   38 IN STRESS PERIOD    2
                    SECONDS     MINUTES      HOURS       DAYS        YEARS
                    -----------------------------------------------------------
   TIME STEP LENGTH  86400.      1440.0      24.000      1.0000     2.73785E-03
 STRESS PERIOD TIME 3.28320E+06  54720.      912.00      38.000     0.10404    
         TOTAL TIME 3.36960E+06  56160.      936.00      39.000     0.10678    
1

 SOLVING FOR HEAD 

 OUTPUT CONTROL FOR STRESS PERIOD    2   TIME STEP   39
    PRINT HEAD FOR ALL LAYERS
    SAVE HEAD FOR ALL LAYERS
    PRINT BUDGET
    SAVE BUDGET
1
              HEAD IN LAYER   1 AT END OF TIME STEP  39 IN STRESS PERIOD    2
  ---------------------------------------------------------------------------

            1           2           3           4           5           6           7           8           9          10
 ........................................................................................................................
   1    9.991       8.882       7.773       6.664       5.555       4.446       3.338       2.229       1.120      1.1089E-02
   2    9.991       8.882       7.773       6.664       5.555       4.446       3.338       2.229       1.120      1.1089E-02
   3    9.991       8.882       7.773       6.664       5.555       4.446       3.338       2.229       1.120      1.1089E-02
   4    9.991       8.882       7.773       6.664       5.555       4.446       3.338       2.229       1.120      1.1089E-02
   5    9.991       8.882       7.773       6.664       5.555       4.446       3.338       2.229       1.120      1.1089E-02
   6    9.991       8.882       7.773       6.664       5.555       4.446       3.338       2.229       1.120      1.1089E-02
   7    9.991       8.882       7.773       6.664       5.555       4.446       3.338       2.229       1.120      1.1089E-02
   8    9.991       8.882       7.773       6.664       5.555       4.446       3.338       2.229       1.120      1.1089E-02
   9    9.991       8.882       7.773       6.664       5.555       4.446       3.338       2.229       1.120      1.1089E-02
  10    9.991       8.882       7.773       6.664       5.555       4.446       3.338       2.229       1.120      1.1089E-02

 HEAD WILL BE SAVED ON UNIT   51 AT END OF TIME STEP   39, STRESS PERIOD    2
1
  VOLUMETRIC BUDGET FOR ENTIRE MODEL AT END OF TIME STEP   39, STRESS PERIOD   2
  ------------------------------------------------------------------------------

     CUMULATIVE VOLUMES      L**3       RATES FOR THIS TIME STEP      L**3/T
     ------------------                 ------------------------

           IN:                                      IN:
           ---                                      ---
             STORAGE =       24995.3750               STORAGE =           0.0000
       CONSTANT HEAD =           0.0000         CONSTANT HEAD =           0.0000
               WELLS =           0.0000                 WELLS =           0.0000
     HEAD DEP BOUNDS =      208789.9844       HEAD DEP BOUNDS =        5544.0171

            TOTAL IN =      233785.3594              TOTAL IN =        5544.0171

          OUT:                                     OUT:
          ----                                     ----
             STORAGE =           0.0000               STORAGE =           0.0000
       CONSTANT HEAD =           0.0000         CONSTANT HEAD =           0.0000
               WELLS =           0.0000                 WELLS =           0.0000
     HEAD DEP BOUNDS =      233793.5781       HEAD DEP BOUNDS =        5544.2617

           TOTAL OUT =      233793.5781             TOTAL OUT =        5544.2617

            IN - OUT =          -8.2188              IN - OUT =          -0.2446

 PERCENT DISCREPANCY =          -0.00     PERCENT DISCREPANCY =          -0.00






         TIME SUMMARY AT END OF TIME STEP   39 IN STRESS PERIOD    2
                    SECONDS     MINUTES      HOURS       DAYS        YEARS
                    -----------------------------------------------------------
   TIME STEP LENGTH  86400.      1440.0      24.000      1.0000     2.73785E-03
 STRESS PERIOD TIME 3.36960E+06  56160.      936.00      39.000     0.10678    
         TOTAL TIME 3.45600E+06  57600.      960.00      40.000     0.10951    
1

 SOLVING FOR HEAD 

 OUTPUT CONTROL FOR STRESS PERIOD    2   TIME STEP   40
    PRINT HEAD FOR ALL LAYERS
    SAVE HEAD FOR ALL LAYERS
    PRINT BUDGET
    SAVE BUDGET
1
              HEAD IN LAYER   1 AT END OF TIME STEP  40 IN STRESS PERIOD    2
  ---------------------------------------------------------------------------

            1           2           3           4           5           6           7           8           9          10
 ........................................................................................................................
   1    9.991       8.882       7.773       6.664       5.555       4.446       3.338       2.229       1.120      1.1089E-02
   2    9.991       8.882       7.773       6.664       5.555       4.446       3.338       2.229       1.120      1.1089E-02
   3    9.991       8.882       7.773       6.664       5.555       4.446       3.338       2.229       1.120      1.1089E-02
   4    9.991       8.882       7.773       6.664       5.555       4.446       3.338       2.229       1.120      1.1089E-02
   5    9.991       8.882       7.773       6.664       5.555       4.446       3.338       2.229       1.120      1.1089E-02
   6    9.991       8.882       7.773       6.664       5.555       4.446       3.338       2.229       1.120      1.1089E-02
   7    9.991       8.882       7.773       6.664       5.555       4.446       3.338       2.229       1.120      1.1089E-02
   8    9.991       8.882       7.773       6.664       5.555       4.446       3.338       2.229       1.120      1.1089E-02
   9    9.991       8.882       7.773       6.664       5.555       4.446       3.338       2.229       1.120      1.1089E-02
  10    9.991       8.882       7.773       6.664       5.555       4.446       3.338       2.229       1.120      1.1089E-02

 HEAD WILL BE SAVED ON UNIT   51 AT END OF TIME STEP   40, STRESS PERIOD    2
1
  VOLUMETRIC BUDGET FOR ENTIRE MODEL AT END OF TIME STEP   40, STRESS PERIOD   2
  ------------------------------------------------------------------------------

     CUMULATIVE VOLUMES      L**3       RATES FOR THIS TIME STEP      L**3/T
     ------------------                 ------------------------

           IN:                                      IN:
           ---                                      ---
             STORAGE =       24995.3750               STORAGE =           0.0000
       CONSTANT HEAD =           0.0000         CONSTANT HEAD =           0.0000
               WELLS =           0.0000                 WELLS =           0.0000
     HEAD DEP BOUNDS =      214334.0000       HEAD DEP BOUNDS =        5544.0171

            TOTAL IN =      239329.3750              TOTAL IN =        5544.0171

          OUT:                                     OUT:
          ----                                     ----
             STORAGE =           0.0000               STORAGE =           0.0000
       CONSTANT HEAD =           0.0000         CONSTANT HEAD =           0.0000
               WELLS =           0.0000                 WELLS =           0.0000
     HEAD DEP BOUNDS =      239337.8438       HEAD DEP BOUNDS =        5544.2617

           TOTAL OUT =      239337.8438             TOTAL OUT =        5544.2617

            IN - OUT =          -8.4688              IN - OUT =          -0.2446

 PERCENT DISCREPANCY =          -0.00     PERCENT DISCREPANCY =          -0.00






         TIME SUMMARY AT END OF TIME STEP   40 IN STRESS PERIOD    2
                    SECONDS     MINUTES      HOURS       DAYS        YEARS
                    -----------------------------------------------------------
   TIME STEP LENGTH  86400.      1440.0      24.000      1.0000     2.73785E-03
 STRESS PERIOD TIME 3.45600E+06  57600.      960.00      40.000     0.10951    
         TOTAL TIME 3.54240E+06  59040.      984.00      41.000     0.11225    
1

 SOLVING FOR HEAD 

 OUTPUT CONTROL FOR STRESS PERIOD    2   TIME STEP   41
    PRINT HEAD FOR ALL LAYERS
    SAVE HEAD FOR ALL LAYERS
    PRINT BUDGET
    SAVE BUDGET
1
              HEAD IN LAYER   1 AT END OF TIME STEP  41 IN STRESS PERIOD    2
  ---------------------------------------------------------------------------

            1           2           3           4           5           6           7           8           9          10
 ........................................................................................................................
   1    9.991       8.882       7.773       6.664       5.555       4.446       3.338       2.229       1.120      1.1089E-02
   2    9.991       8.882       7.773       6.664       5.555       4.446       3.338       2.229       1.120      1.1089E-02
   3    9.991       8.882       7.773       6.664       5.555       4.446       3.338       2.229       1.120      1.1089E-02
   4    9.991       8.882       7.773       6.664       5.555       4.446       3.338       2.229       1.120      1.1089E-02
   5    9.991       8.882       7.773       6.664       5.555       4.446       3.338       2.229       1.120      1.1089E-02
   6    9.991       8.882       7.773       6.664       5.555       4.446       3.338       2.229       1.120      1.1089E-02
   7    9.991       8.882       7.773       6.664       5.555       4.446       3.338       2.229       1.120      1.1089E-02
   8    9.991       8.882       7.773       6.664       5.555       4.446       3.338       2.229       1.120      1.1089E-02
   9    9.991       8.882       7.773       6.664       5.555       4.446       3.338       2.229       1.120      1.1089E-02
  10    9.991       8.882       7.773       6.664       5.555       4.446       3.338       2.229       1.120      1.1089E-02

 HEAD WILL BE SAVED ON UNIT   51 AT END OF TIME STEP   41, STRESS PERIOD    2
1
  VOLUMETRIC BUDGET FOR ENTIRE MODEL AT END OF TIME STEP   41, STRESS PERIOD   2
  ------------------------------------------------------------------------------

     CUMULATIVE VOLUMES      L**3       RATES FOR THIS TIME STEP      L**3/T
     ------------------                 ------------------------

           IN:                                      IN:
           ---                                      ---
             STORAGE =       24995.3750               STORAGE =           0.0000
       CONSTANT HEAD =           0.0000         CONSTANT HEAD =           0.0000
               WELLS =           0.0000                 WELLS =           0.0000
     HEAD DEP BOUNDS =      219878.0156       HEAD DEP BOUNDS =        5544.0171

            TOTAL IN =      244873.3906              TOTAL IN =        5544.0171

          OUT:                                     OUT:
          ----                                     ----
             STORAGE =           0.0000               STORAGE =           0.0000
       CONSTANT HEAD =           0.0000         CONSTANT HEAD =           0.0000
               WELLS =           0.0000                 WELLS =           0.0000
     HEAD DEP BOUNDS =      244882.1094       HEAD DEP BOUNDS =        5544.2617

           TOTAL OUT =      244882.1094             TOTAL OUT =        5544.2617

            IN - OUT =          -8.7188              IN - OUT =          -0.2446

 PERCENT DISCREPANCY =          -0.00     PERCENT DISCREPANCY =          -0.00






         TIME SUMMARY AT END OF TIME STEP   41 IN STRESS PERIOD    2
                    SECONDS     MINUTES      HOURS       DAYS        YEARS
                    -----------------------------------------------------------
   TIME STEP LENGTH  86400.      1440.0      24.000      1.0000     2.73785E-03
 STRESS PERIOD TIME 3.54240E+06  59040.      984.00      41.000     0.11225    
         TOTAL TIME 3.62880E+06  60480.      1008.0      42.000     0.11499    
1

 SOLVING FOR HEAD 

 OUTPUT CONTROL FOR STRESS PERIOD    2   TIME STEP   42
    PRINT HEAD FOR ALL LAYERS
    SAVE HEAD FOR ALL LAYERS
    PRINT BUDGET
    SAVE BUDGET
1
              HEAD IN LAYER   1 AT END OF TIME STEP  42 IN STRESS PERIOD    2
  ---------------------------------------------------------------------------

            1           2           3           4           5           6           7           8           9          10
 ........................................................................................................................
   1    9.991       8.882       7.773       6.664       5.555       4.446       3.338       2.229       1.120      1.1089E-02
   2    9.991       8.882       7.773       6.664       5.555       4.446       3.338       2.229       1.120      1.1089E-02
   3    9.991       8.882       7.773       6.664       5.555       4.446       3.338       2.229       1.120      1.1089E-02
   4    9.991       8.882       7.773       6.664       5.555       4.446       3.338       2.229       1.120      1.1089E-02
   5    9.991       8.882       7.773       6.664       5.555       4.446       3.338       2.229       1.120      1.1089E-02
   6    9.991       8.882       7.773       6.664       5.555       4.446       3.338       2.229       1.120      1.1089E-02
   7    9.991       8.882       7.773       6.664       5.555       4.446       3.338       2.229       1.120      1.1089E-02
   8    9.991       8.882       7.773       6.664       5.555       4.446       3.338       2.229       1.120      1.1089E-02
   9    9.991       8.882       7.773       6.664       5.555       4.446       3.338       2.229       1.120      1.1089E-02
  10    9.991       8.882       7.773       6.664       5.555       4.446       3.338       2.229       1.120      1.1089E-02

 HEAD WILL BE SAVED ON UNIT   51 AT END OF TIME STEP   42, STRESS PERIOD    2
1
  VOLUMETRIC BUDGET FOR ENTIRE MODEL AT END OF TIME STEP   42, STRESS PERIOD   2
  ------------------------------------------------------------------------------

     CUMULATIVE VOLUMES      L**3       RATES FOR THIS TIME STEP      L**3/T
     ------------------                 ------------------------

           IN:                                      IN:
           ---                                      ---
             STORAGE =       24995.3750               STORAGE =           0.0000
       CONSTANT HEAD =           0.0000         CONSTANT HEAD =           0.0000
               WELLS =           0.0000                 WELLS =           0.0000
     HEAD DEP BOUNDS =      225422.0312       HEAD DEP BOUNDS =        5544.0171

            TOTAL IN =      250417.4062              TOTAL IN =        5544.0171

          OUT:                                     OUT:
          ----                                     ----
             STORAGE =           0.0000               STORAGE =           0.0000
       CONSTANT HEAD =           0.0000         CONSTANT HEAD =           0.0000
               WELLS =           0.0000                 WELLS =           0.0000
     HEAD DEP BOUNDS =      250426.3750       HEAD DEP BOUNDS =        5544.2617

           TOTAL OUT =      250426.3750             TOTAL OUT =        5544.2617

            IN - OUT =          -8.9688              IN - OUT =          -0.2446

 PERCENT DISCREPANCY =          -0.00     PERCENT DISCREPANCY =          -0.00






         TIME SUMMARY AT END OF TIME STEP   42 IN STRESS PERIOD    2
                    SECONDS     MINUTES      HOURS       DAYS        YEARS
                    -----------------------------------------------------------
   TIME STEP LENGTH  86400.      1440.0      24.000      1.0000     2.73785E-03
 STRESS PERIOD TIME 3.62880E+06  60480.      1008.0      42.000     0.11499    
         TOTAL TIME 3.71520E+06  61920.      1032.0      43.000     0.11773    
1

 SOLVING FOR HEAD 

 OUTPUT CONTROL FOR STRESS PERIOD    2   TIME STEP   43
    PRINT HEAD FOR ALL LAYERS
    SAVE HEAD FOR ALL LAYERS
    PRINT BUDGET
    SAVE BUDGET
1
              HEAD IN LAYER   1 AT END OF TIME STEP  43 IN STRESS PERIOD    2
  ---------------------------------------------------------------------------

            1           2           3           4           5           6           7           8           9          10
 ........................................................................................................................
   1    9.991       8.882       7.773       6.664       5.555       4.446       3.338       2.229       1.120      1.1089E-02
   2    9.991       8.882       7.773       6.664       5.555       4.446       3.338       2.229       1.120      1.1089E-02
   3    9.991       8.882       7.773       6.664       5.555       4.446       3.338       2.229       1.120      1.1089E-02
   4    9.991       8.882       7.773       6.664       5.555       4.446       3.338       2.229       1.120      1.1089E-02
   5    9.991       8.882       7.773       6.664       5.555       4.446       3.338       2.229       1.120      1.1089E-02
   6    9.991       8.882       7.773       6.664       5.555       4.446       3.338       2.229       1.120      1.1089E-02
   7    9.991       8.882       7.773       6.664       5.555       4.446       3.338       2.229       1.120      1.1089E-02
   8    9.991       8.882       7.773       6.664       5.555       4.446       3.338       2.229       1.120      1.1089E-02
   9    9.991       8.882       7.773       6.664       5.555       4.446       3.338       2.229       1.120      1.1089E-02
  10    9.991       8.882       7.773       6.664       5.555       4.446       3.338       2.229       1.120      1.1089E-02

 HEAD WILL BE SAVED ON UNIT   51 AT END OF TIME STEP   43, STRESS PERIOD    2
1
  VOLUMETRIC BUDGET FOR ENTIRE MODEL AT END OF TIME STEP   43, STRESS PERIOD   2
  ------------------------------------------------------------------------------

     CUMULATIVE VOLUMES      L**3       RATES FOR THIS TIME STEP      L**3/T
     ------------------                 ------------------------

           IN:                                      IN:
           ---                                      ---
             STORAGE =       24995.3750               STORAGE =           0.0000
       CONSTANT HEAD =           0.0000         CONSTANT HEAD =           0.0000
               WELLS =           0.0000                 WELLS =           0.0000
     HEAD DEP BOUNDS =      230966.0469       HEAD DEP BOUNDS =        5544.0171

            TOTAL IN =      255961.4219              TOTAL IN =        5544.0171

          OUT:                                     OUT:
          ----                                     ----
             STORAGE =           0.0000               STORAGE =           0.0000
       CONSTANT HEAD =           0.0000         CONSTANT HEAD =           0.0000
               WELLS =           0.0000                 WELLS =           0.0000
     HEAD DEP BOUNDS =      255970.6406       HEAD DEP BOUNDS =        5544.2617

           TOTAL OUT =      255970.6406             TOTAL OUT =        5544.2617

            IN - OUT =          -9.2188              IN - OUT =          -0.2446

 PERCENT DISCREPANCY =          -0.00     PERCENT DISCREPANCY =          -0.00






         TIME SUMMARY AT END OF TIME STEP   43 IN STRESS PERIOD    2
                    SECONDS     MINUTES      HOURS       DAYS        YEARS
                    -----------------------------------------------------------
   TIME STEP LENGTH  86400.      1440.0      24.000      1.0000     2.73785E-03
 STRESS PERIOD TIME 3.71520E+06  61920.      1032.0      43.000     0.11773    
         TOTAL TIME 3.80160E+06  63360.      1056.0      44.000     0.12047    
1

 SOLVING FOR HEAD 

 OUTPUT CONTROL FOR STRESS PERIOD    2   TIME STEP   44
    PRINT HEAD FOR ALL LAYERS
    SAVE HEAD FOR ALL LAYERS
    PRINT BUDGET
    SAVE BUDGET
1
              HEAD IN LAYER   1 AT END OF TIME STEP  44 IN STRESS PERIOD    2
  ---------------------------------------------------------------------------

            1           2           3           4           5           6           7           8           9          10
 ........................................................................................................................
   1    9.991       8.882       7.773       6.664       5.555       4.446       3.338       2.229       1.120      1.1089E-02
   2    9.991       8.882       7.773       6.664       5.555       4.446       3.338       2.229       1.120      1.1089E-02
   3    9.991       8.882       7.773       6.664       5.555       4.446       3.338       2.229       1.120      1.1089E-02
   4    9.991       8.882       7.773       6.664       5.555       4.446       3.338       2.229       1.120      1.1089E-02
   5    9.991       8.882       7.773       6.664       5.555       4.446       3.338       2.229       1.120      1.1089E-02
   6    9.991       8.882       7.773       6.664       5.555       4.446       3.338       2.229       1.120      1.1089E-02
   7    9.991       8.882       7.773       6.664       5.555       4.446       3.338       2.229       1.120      1.1089E-02
   8    9.991       8.882       7.773       6.664       5.555       4.446       3.338       2.229       1.120      1.1089E-02
   9    9.991       8.882       7.773       6.664       5.555       4.446       3.338       2.229       1.120      1.1089E-02
  10    9.991       8.882       7.773       6.664       5.555       4.446       3.338       2.229       1.120      1.1089E-02

 HEAD WILL BE SAVED ON UNIT   51 AT END OF TIME STEP   44, STRESS PERIOD    2
1
  VOLUMETRIC BUDGET FOR ENTIRE MODEL AT END OF TIME STEP   44, STRESS PERIOD   2
  ------------------------------------------------------------------------------

     CUMULATIVE VOLUMES      L**3       RATES FOR THIS TIME STEP      L**3/T
     ------------------                 ------------------------

           IN:                                      IN:
           ---                                      ---
             STORAGE =       24995.3750               STORAGE =           0.0000
       CONSTANT HEAD =           0.0000         CONSTANT HEAD =           0.0000
               WELLS =           0.0000                 WELLS =           0.0000
     HEAD DEP BOUNDS =      236510.0625       HEAD DEP BOUNDS =        5544.0171

            TOTAL IN =      261505.4375              TOTAL IN =        5544.0171

          OUT:                                     OUT:
          ----                                     ----
             STORAGE =           0.0000               STORAGE =           0.0000
       CONSTANT HEAD =           0.0000         CONSTANT HEAD =           0.0000
               WELLS =           0.0000                 WELLS =           0.0000
     HEAD DEP BOUNDS =      261514.9062       HEAD DEP BOUNDS =        5544.2617

           TOTAL OUT =      261514.9062             TOTAL OUT =        5544.2617

            IN - OUT =          -9.4688              IN - OUT =          -0.2446

 PERCENT DISCREPANCY =          -0.00     PERCENT DISCREPANCY =          -0.00






         TIME SUMMARY AT END OF TIME STEP   44 IN STRESS PERIOD    2
                    SECONDS     MINUTES      HOURS       DAYS        YEARS
                    -----------------------------------------------------------
   TIME STEP LENGTH  86400.      1440.0      24.000      1.0000     2.73785E-03
 STRESS PERIOD TIME 3.80160E+06  63360.      1056.0      44.000     0.12047    
         TOTAL TIME 3.88800E+06  64800.      1080.0      45.000     0.12320    
1

 SOLVING FOR HEAD 

 OUTPUT CONTROL FOR STRESS PERIOD    2   TIME STEP   45
    PRINT HEAD FOR ALL LAYERS
    SAVE HEAD FOR ALL LAYERS
    PRINT BUDGET
    SAVE BUDGET
1
              HEAD IN LAYER   1 AT END OF TIME STEP  45 IN STRESS PERIOD    2
  ---------------------------------------------------------------------------

            1           2           3           4           5           6           7           8           9          10
 ........................................................................................................................
   1    9.991       8.882       7.773       6.664       5.555       4.446       3.338       2.229       1.120      1.1089E-02
   2    9.991       8.882       7.773       6.664       5.555       4.446       3.338       2.229       1.120      1.1089E-02
   3    9.991       8.882       7.773       6.664       5.555       4.446       3.338       2.229       1.120      1.1089E-02
   4    9.991       8.882       7.773       6.664       5.555       4.446       3.338       2.229       1.120      1.1089E-02
   5    9.991       8.882       7.773       6.664       5.555       4.446       3.338       2.229       1.120      1.1089E-02
   6    9.991       8.882       7.773       6.664       5.555       4.446       3.338       2.229       1.120      1.1089E-02
   7    9.991       8.882       7.773       6.664       5.555       4.446       3.338       2.229       1.120      1.1089E-02
   8    9.991       8.882       7.773       6.664       5.555       4.446       3.338       2.229       1.120      1.1089E-02
   9    9.991       8.882       7.773       6.664       5.555       4.446       3.338       2.229       1.120      1.1089E-02
  10    9.991       8.882       7.773       6.664       5.555       4.446       3.338       2.229       1.120      1.1089E-02

 HEAD WILL BE SAVED ON UNIT   51 AT END OF TIME STEP   45, STRESS PERIOD    2
1
  VOLUMETRIC BUDGET FOR ENTIRE MODEL AT END OF TIME STEP   45, STRESS PERIOD   2
  ------------------------------------------------------------------------------

     CUMULATIVE VOLUMES      L**3       RATES FOR THIS TIME STEP      L**3/T
     ------------------                 ------------------------

           IN:                                      IN:
           ---                                      ---
             STORAGE =       24995.3750               STORAGE =           0.0000
       CONSTANT HEAD =           0.0000         CONSTANT HEAD =           0.0000
               WELLS =           0.0000                 WELLS =           0.0000
     HEAD DEP BOUNDS =      242054.0781       HEAD DEP BOUNDS =        5544.0171

            TOTAL IN =      267049.4375              TOTAL IN =        5544.0171

          OUT:                                     OUT:
          ----                                     ----
             STORAGE =           0.0000               STORAGE =           0.0000
       CONSTANT HEAD =           0.0000         CONSTANT HEAD =           0.0000
               WELLS =           0.0000                 WELLS =           0.0000
     HEAD DEP BOUNDS =      267059.1562       HEAD DEP BOUNDS =        5544.2617

           TOTAL OUT =      267059.1562             TOTAL OUT =        5544.2617

            IN - OUT =          -9.7188              IN - OUT =          -0.2446

 PERCENT DISCREPANCY =          -0.00     PERCENT DISCREPANCY =          -0.00






         TIME SUMMARY AT END OF TIME STEP   45 IN STRESS PERIOD    2
                    SECONDS     MINUTES      HOURS       DAYS        YEARS
                    -----------------------------------------------------------
   TIME STEP LENGTH  86400.      1440.0      24.000      1.0000     2.73785E-03
 STRESS PERIOD TIME 3.88800E+06  64800.      1080.0      45.000     0.12320    
         TOTAL TIME 3.97440E+06  66240.      1104.0      46.000     0.12594    
1

 SOLVING FOR HEAD 

 OUTPUT CONTROL FOR STRESS PERIOD    2   TIME STEP   46
    PRINT HEAD FOR ALL LAYERS
    SAVE HEAD FOR ALL LAYERS
    PRINT BUDGET
    SAVE BUDGET
1
              HEAD IN LAYER   1 AT END OF TIME STEP  46 IN STRESS PERIOD    2
  ---------------------------------------------------------------------------

            1           2           3           4           5           6           7           8           9          10
 ........................................................................................................................
   1    9.991       8.882       7.773       6.664       5.555       4.446       3.338       2.229       1.120      1.1089E-02
   2    9.991       8.882       7.773       6.664       5.555       4.446       3.338       2.229       1.120      1.1089E-02
   3    9.991       8.882       7.773       6.664       5.555       4.446       3.338       2.229       1.120      1.1089E-02
   4    9.991       8.882       7.773       6.664       5.555       4.446       3.338       2.229       1.120      1.1089E-02
   5    9.991       8.882       7.773       6.664       5.555       4.446       3.338       2.229       1.120      1.1089E-02
   6    9.991       8.882       7.773       6.664       5.555       4.446       3.338       2.229       1.120      1.1089E-02
   7    9.991       8.882       7.773       6.664       5.555       4.446       3.338       2.229       1.120      1.1089E-02
   8    9.991       8.882       7.773       6.664       5.555       4.446       3.338       2.229       1.120      1.1089E-02
   9    9.991       8.882       7.773       6.664       5.555       4.446       3.338       2.229       1.120      1.1089E-02
  10    9.991       8.882       7.773       6.664       5.555       4.446       3.338       2.229       1.120      1.1089E-02

 HEAD WILL BE SAVED ON UNIT   51 AT END OF TIME STEP   46, STRESS PERIOD    2
1
  VOLUMETRIC BUDGET FOR ENTIRE MODEL AT END OF TIME STEP   46, STRESS PERIOD   2
  ------------------------------------------------------------------------------

     CUMULATIVE VOLUMES      L**3       RATES FOR THIS TIME STEP      L**3/T
     ------------------                 ------------------------

           IN:                                      IN:
           ---                                      ---
             STORAGE =       24995.3750               STORAGE =           0.0000
       CONSTANT HEAD =           0.0000         CONSTANT HEAD =           0.0000
               WELLS =           0.0000                 WELLS =           0.0000
     HEAD DEP BOUNDS =      247598.0938       HEAD DEP BOUNDS =        5544.0171

            TOTAL IN =      272593.4688              TOTAL IN =        5544.0171

          OUT:                                     OUT:
          ----                                     ----
             STORAGE =           0.0000               STORAGE =           0.0000
       CONSTANT HEAD =           0.0000         CONSTANT HEAD =           0.0000
               WELLS =           0.0000                 WELLS =           0.0000
     HEAD DEP BOUNDS =      272603.4062       HEAD DEP BOUNDS =        5544.2617

           TOTAL OUT =      272603.4062             TOTAL OUT =        5544.2617

            IN - OUT =          -9.9375              IN - OUT =          -0.2446

 PERCENT DISCREPANCY =          -0.00     PERCENT DISCREPANCY =          -0.00






         TIME SUMMARY AT END OF TIME STEP   46 IN STRESS PERIOD    2
                    SECONDS     MINUTES      HOURS       DAYS        YEARS
                    -----------------------------------------------------------
   TIME STEP LENGTH  86400.      1440.0      24.000      1.0000     2.73785E-03
 STRESS PERIOD TIME 3.97440E+06  66240.      1104.0      46.000     0.12594    
         TOTAL TIME 4.06080E+06  67680.      1128.0      47.000     0.12868    
1

 SOLVING FOR HEAD 

 OUTPUT CONTROL FOR STRESS PERIOD    2   TIME STEP   47
    PRINT HEAD FOR ALL LAYERS
    SAVE HEAD FOR ALL LAYERS
    PRINT BUDGET
    SAVE BUDGET
1
              HEAD IN LAYER   1 AT END OF TIME STEP  47 IN STRESS PERIOD    2
  ---------------------------------------------------------------------------

            1           2           3           4           5           6           7           8           9          10
 ........................................................................................................................
   1    9.991       8.882       7.773       6.664       5.555       4.446       3.338       2.229       1.120      1.1089E-02
   2    9.991       8.882       7.773       6.664       5.555       4.446       3.338       2.229       1.120      1.1089E-02
   3    9.991       8.882       7.773       6.664       5.555       4.446       3.338       2.229       1.120      1.1089E-02
   4    9.991       8.882       7.773       6.664       5.555       4.446       3.338       2.229       1.120      1.1089E-02
   5    9.991       8.882       7.773       6.664       5.555       4.446       3.338       2.229       1.120      1.1089E-02
   6    9.991       8.882       7.773       6.664       5.555       4.446       3.338       2.229       1.120      1.1089E-02
   7    9.991       8.882       7.773       6.664       5.555       4.446       3.338       2.229       1.120      1.1089E-02
   8    9.991       8.882       7.773       6.664       5.555       4.446       3.338       2.229       1.120      1.1089E-02
   9    9.991       8.882       7.773       6.664       5.555       4.446       3.338       2.229       1.120      1.1089E-02
  10    9.991       8.882       7.773       6.664       5.555       4.446       3.338       2.229       1.120      1.1089E-02

 HEAD WILL BE SAVED ON UNIT   51 AT END OF TIME STEP   47, STRESS PERIOD    2
1
  VOLUMETRIC BUDGET FOR ENTIRE MODEL AT END OF TIME STEP   47, STRESS PERIOD   2
  ------------------------------------------------------------------------------

     CUMULATIVE VOLUMES      L**3       RATES FOR THIS TIME STEP      L**3/T
     ------------------                 ------------------------

           IN:                                      IN:
           ---                                      ---
             STORAGE =       24995.3750               STORAGE =           0.0000
       CONSTANT HEAD =           0.0000         CONSTANT HEAD =           0.0000
               WELLS =           0.0000                 WELLS =           0.0000
     HEAD DEP BOUNDS =      253142.1094       HEAD DEP BOUNDS =        5544.0171

            TOTAL IN =      278137.5000              TOTAL IN =        5544.0171

          OUT:                                     OUT:
          ----                                     ----
             STORAGE =           0.0000               STORAGE =           0.0000
       CONSTANT HEAD =           0.0000         CONSTANT HEAD =           0.0000
               WELLS =           0.0000                 WELLS =           0.0000
     HEAD DEP BOUNDS =      278147.6562       HEAD DEP BOUNDS =        5544.2617

           TOTAL OUT =      278147.6562             TOTAL OUT =        5544.2617

            IN - OUT =         -10.1562              IN - OUT =          -0.2446

 PERCENT DISCREPANCY =          -0.00     PERCENT DISCREPANCY =          -0.00






         TIME SUMMARY AT END OF TIME STEP   47 IN STRESS PERIOD    2
                    SECONDS     MINUTES      HOURS       DAYS        YEARS
                    -----------------------------------------------------------
   TIME STEP LENGTH  86400.      1440.0      24.000      1.0000     2.73785E-03
 STRESS PERIOD TIME 4.06080E+06  67680.      1128.0      47.000     0.12868    
         TOTAL TIME 4.14720E+06  69120.      1152.0      48.000     0.13142    
1

 SOLVING FOR HEAD 

 OUTPUT CONTROL FOR STRESS PERIOD    2   TIME STEP   48
    PRINT HEAD FOR ALL LAYERS
    SAVE HEAD FOR ALL LAYERS
    PRINT BUDGET
    SAVE BUDGET
1
              HEAD IN LAYER   1 AT END OF TIME STEP  48 IN STRESS PERIOD    2
  ---------------------------------------------------------------------------

            1           2           3           4           5           6           7           8           9          10
 ........................................................................................................................
   1    9.991       8.882       7.773       6.664       5.555       4.446       3.338       2.229       1.120      1.1089E-02
   2    9.991       8.882       7.773       6.664       5.555       4.446       3.338       2.229       1.120      1.1089E-02
   3    9.991       8.882       7.773       6.664       5.555       4.446       3.338       2.229       1.120      1.1089E-02
   4    9.991       8.882       7.773       6.664       5.555       4.446       3.338       2.229       1.120      1.1089E-02
   5    9.991       8.882       7.773       6.664       5.555       4.446       3.338       2.229       1.120      1.1089E-02
   6    9.991       8.882       7.773       6.664       5.555       4.446       3.338       2.229       1.120      1.1089E-02
   7    9.991       8.882       7.773       6.664       5.555       4.446       3.338       2.229       1.120      1.1089E-02
   8    9.991       8.882       7.773       6.664       5.555       4.446       3.338       2.229       1.120      1.1089E-02
   9    9.991       8.882       7.773       6.664       5.555       4.446       3.338       2.229       1.120      1.1089E-02
  10    9.991       8.882       7.773       6.664       5.555       4.446       3.338       2.229       1.120      1.1089E-02

 HEAD WILL BE SAVED ON UNIT   51 AT END OF TIME STEP   48, STRESS PERIOD    2
1
  VOLUMETRIC BUDGET FOR ENTIRE MODEL AT END OF TIME STEP   48, STRESS PERIOD   2
  ------------------------------------------------------------------------------

     CUMULATIVE VOLUMES      L**3       RATES FOR THIS TIME STEP      L**3/T
     ------------------                 ------------------------

           IN:                                      IN:
           ---                                      ---
             STORAGE =       24995.3750               STORAGE =           0.0000
       CONSTANT HEAD =           0.0000         CONSTANT HEAD =           0.0000
               WELLS =           0.0000                 WELLS =           0.0000
     HEAD DEP BOUNDS =      258686.1250       HEAD DEP BOUNDS =        5544.0171

            TOTAL IN =      283681.5000              TOTAL IN =        5544.0171

          OUT:                                     OUT:
          ----                                     ----
             STORAGE =           0.0000               STORAGE =           0.0000
       CONSTANT HEAD =           0.0000         CONSTANT HEAD =           0.0000
               WELLS =           0.0000                 WELLS =           0.0000
     HEAD DEP BOUNDS =      283691.9062       HEAD DEP BOUNDS =        5544.2617

           TOTAL OUT =      283691.9062             TOTAL OUT =        5544.2617

            IN - OUT =         -10.4062              IN - OUT =          -0.2446

 PERCENT DISCREPANCY =          -0.00     PERCENT DISCREPANCY =          -0.00






         TIME SUMMARY AT END OF TIME STEP   48 IN STRESS PERIOD    2
                    SECONDS     MINUTES      HOURS       DAYS        YEARS
                    -----------------------------------------------------------
   TIME STEP LENGTH  86400.      1440.0      24.000      1.0000     2.73785E-03
 STRESS PERIOD TIME 4.14720E+06  69120.      1152.0      48.000     0.13142    
         TOTAL TIME 4.23360E+06  70560.      1176.0      49.000     0.13415    
1

 SOLVING FOR HEAD 

 OUTPUT CONTROL FOR STRESS PERIOD    2   TIME STEP   49
    PRINT HEAD FOR ALL LAYERS
    SAVE HEAD FOR ALL LAYERS
    PRINT BUDGET
    SAVE BUDGET
1
              HEAD IN LAYER   1 AT END OF TIME STEP  49 IN STRESS PERIOD    2
  ---------------------------------------------------------------------------

            1           2           3           4           5           6           7           8           9          10
 ........................................................................................................................
   1    9.991       8.882       7.773       6.664       5.555       4.446       3.338       2.229       1.120      1.1089E-02
   2    9.991       8.882       7.773       6.664       5.555       4.446       3.338       2.229       1.120      1.1089E-02
   3    9.991       8.882       7.773       6.664       5.555       4.446       3.338       2.229       1.120      1.1089E-02
   4    9.991       8.882       7.773       6.664       5.555       4.446       3.338       2.229       1.120      1.1089E-02
   5    9.991       8.882       7.773       6.664       5.555       4.446       3.338       2.229       1.120      1.1089E-02
   6    9.991       8.882       7.773       6.664       5.555       4.446       3.338       2.229       1.120      1.1089E-02
   7    9.991       8.882       7.773       6.664       5.555       4.446       3.338       2.229       1.120      1.1089E-02
   8    9.991       8.882       7.773       6.664       5.555       4.446       3.338       2.229       1.120      1.1089E-02
   9    9.991       8.882       7.773       6.664       5.555       4.446       3.338       2.229       1.120      1.1089E-02
  10    9.991       8.882       7.773       6.664       5.555       4.446       3.338       2.229       1.120      1.1089E-02

 HEAD WILL BE SAVED ON UNIT   51 AT END OF TIME STEP   49, STRESS PERIOD    2
1
  VOLUMETRIC BUDGET FOR ENTIRE MODEL AT END OF TIME STEP   49, STRESS PERIOD   2
  ------------------------------------------------------------------------------

     CUMULATIVE VOLUMES      L**3       RATES FOR THIS TIME STEP      L**3/T
     ------------------                 ------------------------

           IN:                                      IN:
           ---                                      ---
             STORAGE =       24995.3750               STORAGE =           0.0000
       CONSTANT HEAD =           0.0000         CONSTANT HEAD =           0.0000
               WELLS =           0.0000                 WELLS =           0.0000
     HEAD DEP BOUNDS =      264230.1562       HEAD DEP BOUNDS =        5544.0171

            TOTAL IN =      289225.5312              TOTAL IN =        5544.0171

          OUT:                                     OUT:
          ----                                     ----
             STORAGE =           0.0000               STORAGE =           0.0000
       CONSTANT HEAD =           0.0000         CONSTANT HEAD =           0.0000
               WELLS =           0.0000                 WELLS =           0.0000
     HEAD DEP BOUNDS =      289236.1562       HEAD DEP BOUNDS =        5544.2617

           TOTAL OUT =      289236.1562             TOTAL OUT =        5544.2617

            IN - OUT =         -10.6250              IN - OUT =          -0.2446

 PERCENT DISCREPANCY =          -0.00     PERCENT DISCREPANCY =          -0.00






         TIME SUMMARY AT END OF TIME STEP   49 IN STRESS PERIOD    2
                    SECONDS     MINUTES      HOURS       DAYS        YEARS
                    -----------------------------------------------------------
   TIME STEP LENGTH  86400.      1440.0      24.000      1.0000     2.73785E-03
 STRESS PERIOD TIME 4.23360E+06  70560.      1176.0      49.000     0.13415    
         TOTAL TIME 4.32000E+06  72000.      1200.0      50.000     0.13689    
1

 SOLVING FOR HEAD 

 OUTPUT CONTROL FOR STRESS PERIOD    2   TIME STEP   50
    PRINT HEAD FOR ALL LAYERS
    SAVE HEAD FOR ALL LAYERS
    PRINT BUDGET
    SAVE BUDGET
1
              HEAD IN LAYER   1 AT END OF TIME STEP  50 IN STRESS PERIOD    2
  ---------------------------------------------------------------------------

            1           2           3           4           5           6           7           8           9          10
 ........................................................................................................................
   1    9.991       8.882       7.773       6.664       5.555       4.446       3.338       2.229       1.120      1.1089E-02
   2    9.991       8.882       7.773       6.664       5.555       4.446       3.338       2.229       1.120      1.1089E-02
   3    9.991       8.882       7.773       6.664       5.555       4.446       3.338       2.229       1.120      1.1089E-02
   4    9.991       8.882       7.773       6.664       5.555       4.446       3.338       2.229       1.120      1.1089E-02
   5    9.991       8.882       7.773       6.664       5.555       4.446       3.338       2.229       1.120      1.1089E-02
   6    9.991       8.882       7.773       6.664       5.555       4.446       3.338       2.229       1.120      1.1089E-02
   7    9.991       8.882       7.773       6.664       5.555       4.446       3.338       2.229       1.120      1.1089E-02
   8    9.991       8.882       7.773       6.664       5.555       4.446       3.338       2.229       1.120      1.1089E-02
   9    9.991       8.882       7.773       6.664       5.555       4.446       3.338       2.229       1.120      1.1089E-02
  10    9.991       8.882       7.773       6.664       5.555       4.446       3.338       2.229       1.120      1.1089E-02

 HEAD WILL BE SAVED ON UNIT   51 AT END OF TIME STEP   50, STRESS PERIOD    2
1
  VOLUMETRIC BUDGET FOR ENTIRE MODEL AT END OF TIME STEP   50, STRESS PERIOD   2
  ------------------------------------------------------------------------------

     CUMULATIVE VOLUMES      L**3       RATES FOR THIS TIME STEP      L**3/T
     ------------------                 ------------------------

           IN:                                      IN:
           ---                                      ---
             STORAGE =       24995.3750               STORAGE =           0.0000
       CONSTANT HEAD =           0.0000         CONSTANT HEAD =           0.0000
               WELLS =           0.0000                 WELLS =           0.0000
     HEAD DEP BOUNDS =      269774.1875       HEAD DEP BOUNDS =        5544.0171

            TOTAL IN =      294769.5625              TOTAL IN =        5544.0171

          OUT:                                     OUT:
          ----                                     ----
             STORAGE =           0.0000               STORAGE =           0.0000
       CONSTANT HEAD =           0.0000         CONSTANT HEAD =           0.0000
               WELLS =           0.0000                 WELLS =           0.0000
     HEAD DEP BOUNDS =      294780.4062       HEAD DEP BOUNDS =        5544.2617

           TOTAL OUT =      294780.4062             TOTAL OUT =        5544.2617

            IN - OUT =         -10.8438              IN - OUT =          -0.2446

 PERCENT DISCREPANCY =          -0.00     PERCENT DISCREPANCY =          -0.00






         TIME SUMMARY AT END OF TIME STEP   50 IN STRESS PERIOD    2
                    SECONDS     MINUTES      HOURS       DAYS        YEARS
                    -----------------------------------------------------------
   TIME STEP LENGTH  86400.      1440.0      24.000      1.0000     2.73785E-03
 STRESS PERIOD TIME 4.32000E+06  72000.      1200.0      50.000     0.13689    
         TOTAL TIME 4.40640E+06  73440.      1224.0      51.000     0.13963    
1

 SOLVING FOR HEAD 

 OUTPUT CONTROL FOR STRESS PERIOD    2   TIME STEP   51
    PRINT HEAD FOR ALL LAYERS
    SAVE HEAD FOR ALL LAYERS
    PRINT BUDGET
    SAVE BUDGET
1
              HEAD IN LAYER   1 AT END OF TIME STEP  51 IN STRESS PERIOD    2
  ---------------------------------------------------------------------------

            1           2           3           4           5           6           7           8           9          10
 ........................................................................................................................
   1    9.991       8.882       7.773       6.664       5.555       4.446       3.338       2.229       1.120      1.1089E-02
   2    9.991       8.882       7.773       6.664       5.555       4.446       3.338       2.229       1.120      1.1089E-02
   3    9.991       8.882       7.773       6.664       5.555       4.446       3.338       2.229       1.120      1.1089E-02
   4    9.991       8.882       7.773       6.664       5.555       4.446       3.338       2.229       1.120      1.1089E-02
   5    9.991       8.882       7.773       6.664       5.555       4.446       3.338       2.229       1.120      1.1089E-02
   6    9.991       8.882       7.773       6.664       5.555       4.446       3.338       2.229       1.120      1.1089E-02
   7    9.991       8.882       7.773       6.664       5.555       4.446       3.338       2.229       1.120      1.1089E-02
   8    9.991       8.882       7.773       6.664       5.555       4.446       3.338       2.229       1.120      1.1089E-02
   9    9.991       8.882       7.773       6.664       5.555       4.446       3.338       2.229       1.120      1.1089E-02
  10    9.991       8.882       7.773       6.664       5.555       4.446       3.338       2.229       1.120      1.1089E-02

 HEAD WILL BE SAVED ON UNIT   51 AT END OF TIME STEP   51, STRESS PERIOD    2
1
  VOLUMETRIC BUDGET FOR ENTIRE MODEL AT END OF TIME STEP   51, STRESS PERIOD   2
  ------------------------------------------------------------------------------

     CUMULATIVE VOLUMES      L**3       RATES FOR THIS TIME STEP      L**3/T
     ------------------                 ------------------------

           IN:                                      IN:
           ---                                      ---
             STORAGE =       24995.3750               STORAGE =           0.0000
       CONSTANT HEAD =           0.0000         CONSTANT HEAD =           0.0000
               WELLS =           0.0000                 WELLS =           0.0000
     HEAD DEP BOUNDS =      275318.2188       HEAD DEP BOUNDS =        5544.0171

            TOTAL IN =      300313.5938              TOTAL IN =        5544.0171

          OUT:                                     OUT:
          ----                                     ----
             STORAGE =           0.0000               STORAGE =           0.0000
       CONSTANT HEAD =           0.0000         CONSTANT HEAD =           0.0000
               WELLS =           0.0000                 WELLS =           0.0000
     HEAD DEP BOUNDS =      300324.6562       HEAD DEP BOUNDS =        5544.2617

           TOTAL OUT =      300324.6562             TOTAL OUT =        5544.2617

            IN - OUT =         -11.0625              IN - OUT =          -0.2446

 PERCENT DISCREPANCY =          -0.00     PERCENT DISCREPANCY =          -0.00






         TIME SUMMARY AT END OF TIME STEP   51 IN STRESS PERIOD    2
                    SECONDS     MINUTES      HOURS       DAYS        YEARS
                    -----------------------------------------------------------
   TIME STEP LENGTH  86400.      1440.0      24.000      1.0000     2.73785E-03
 STRESS PERIOD TIME 4.40640E+06  73440.      1224.0      51.000     0.13963    
         TOTAL TIME 4.49280E+06  74880.      1248.0      52.000     0.14237    
1

 SOLVING FOR HEAD 

 OUTPUT CONTROL FOR STRESS PERIOD    2   TIME STEP   52
    PRINT HEAD FOR ALL LAYERS
    SAVE HEAD FOR ALL LAYERS
    PRINT BUDGET
    SAVE BUDGET
1
              HEAD IN LAYER   1 AT END OF TIME STEP  52 IN STRESS PERIOD    2
  ---------------------------------------------------------------------------

            1           2           3           4           5           6           7           8           9          10
 ........................................................................................................................
   1    9.991       8.882       7.773       6.664       5.555       4.446       3.338       2.229       1.120      1.1089E-02
   2    9.991       8.882       7.773       6.664       5.555       4.446       3.338       2.229       1.120      1.1089E-02
   3    9.991       8.882       7.773       6.664       5.555       4.446       3.338       2.229       1.120      1.1089E-02
   4    9.991       8.882       7.773       6.664       5.555       4.446       3.338       2.229       1.120      1.1089E-02
   5    9.991       8.882       7.773       6.664       5.555       4.446       3.338       2.229       1.120      1.1089E-02
   6    9.991       8.882       7.773       6.664       5.555       4.446       3.338       2.229       1.120      1.1089E-02
   7    9.991       8.882       7.773       6.664       5.555       4.446       3.338       2.229       1.120      1.1089E-02
   8    9.991       8.882       7.773       6.664       5.555       4.446       3.338       2.229       1.120      1.1089E-02
   9    9.991       8.882       7.773       6.664       5.555       4.446       3.338       2.229       1.120      1.1089E-02
  10    9.991       8.882       7.773       6.664       5.555       4.446       3.338       2.229       1.120      1.1089E-02

 HEAD WILL BE SAVED ON UNIT   51 AT END OF TIME STEP   52, STRESS PERIOD    2
1
  VOLUMETRIC BUDGET FOR ENTIRE MODEL AT END OF TIME STEP   52, STRESS PERIOD   2
  ------------------------------------------------------------------------------

     CUMULATIVE VOLUMES      L**3       RATES FOR THIS TIME STEP      L**3/T
     ------------------                 ------------------------

           IN:                                      IN:
           ---                                      ---
             STORAGE =       24995.3750               STORAGE =           0.0000
       CONSTANT HEAD =           0.0000         CONSTANT HEAD =           0.0000
               WELLS =           0.0000                 WELLS =           0.0000
     HEAD DEP BOUNDS =      280862.2500       HEAD DEP BOUNDS =        5544.0171

            TOTAL IN =      305857.6250              TOTAL IN =        5544.0171

          OUT:                                     OUT:
          ----                                     ----
             STORAGE =           0.0000               STORAGE =           0.0000
       CONSTANT HEAD =           0.0000         CONSTANT HEAD =           0.0000
               WELLS =           0.0000                 WELLS =           0.0000
     HEAD DEP BOUNDS =      305868.9062       HEAD DEP BOUNDS =        5544.2617

           TOTAL OUT =      305868.9062             TOTAL OUT =        5544.2617

            IN - OUT =         -11.2812              IN - OUT =          -0.2446

 PERCENT DISCREPANCY =          -0.00     PERCENT DISCREPANCY =          -0.00






         TIME SUMMARY AT END OF TIME STEP   52 IN STRESS PERIOD    2
                    SECONDS     MINUTES      HOURS       DAYS        YEARS
                    -----------------------------------------------------------
   TIME STEP LENGTH  86400.      1440.0      24.000      1.0000     2.73785E-03
 STRESS PERIOD TIME 4.49280E+06  74880.      1248.0      52.000     0.14237    
         TOTAL TIME 4.57920E+06  76320.      1272.0      53.000     0.14511    
1

 SOLVING FOR HEAD 

 OUTPUT CONTROL FOR STRESS PERIOD    2   TIME STEP   53
    PRINT HEAD FOR ALL LAYERS
    SAVE HEAD FOR ALL LAYERS
    PRINT BUDGET
    SAVE BUDGET
1
              HEAD IN LAYER   1 AT END OF TIME STEP  53 IN STRESS PERIOD    2
  ---------------------------------------------------------------------------

            1           2           3           4           5           6           7           8           9          10
 ........................................................................................................................
   1    9.991       8.882       7.773       6.664       5.555       4.446       3.338       2.229       1.120      1.1089E-02
   2    9.991       8.882       7.773       6.664       5.555       4.446       3.338       2.229       1.120      1.1089E-02
   3    9.991       8.882       7.773       6.664       5.555       4.446       3.338       2.229       1.120      1.1089E-02
   4    9.991       8.882       7.773       6.664       5.555       4.446       3.338       2.229       1.120      1.1089E-02
   5    9.991       8.882       7.773       6.664       5.555       4.446       3.338       2.229       1.120      1.1089E-02
   6    9.991       8.882       7.773       6.664       5.555       4.446       3.338       2.229       1.120      1.1089E-02
   7    9.991       8.882       7.773       6.664       5.555       4.446       3.338       2.229       1.120      1.1089E-02
   8    9.991       8.882       7.773       6.664       5.555       4.446       3.338       2.229       1.120      1.1089E-02
   9    9.991       8.882       7.773       6.664       5.555       4.446       3.338       2.229       1.120      1.1089E-02
  10    9.991       8.882       7.773       6.664       5.555       4.446       3.338       2.229       1.120      1.1089E-02

 HEAD WILL BE SAVED ON UNIT   51 AT END OF TIME STEP   53, STRESS PERIOD    2
1
  VOLUMETRIC BUDGET FOR ENTIRE MODEL AT END OF TIME STEP   53, STRESS PERIOD   2
  ------------------------------------------------------------------------------

     CUMULATIVE VOLUMES      L**3       RATES FOR THIS TIME STEP      L**3/T
     ------------------                 ------------------------

           IN:                                      IN:
           ---                                      ---
             STORAGE =       24995.3750               STORAGE =           0.0000
       CONSTANT HEAD =           0.0000         CONSTANT HEAD =           0.0000
               WELLS =           0.0000                 WELLS =           0.0000
     HEAD DEP BOUNDS =      286406.2812       HEAD DEP BOUNDS =        5544.0171

            TOTAL IN =      311401.6562              TOTAL IN =        5544.0171

          OUT:                                     OUT:
          ----                                     ----
             STORAGE =           0.0000               STORAGE =           0.0000
       CONSTANT HEAD =           0.0000         CONSTANT HEAD =           0.0000
               WELLS =           0.0000                 WELLS =           0.0000
     HEAD DEP BOUNDS =      311413.1562       HEAD DEP BOUNDS =        5544.2617

           TOTAL OUT =      311413.1562             TOTAL OUT =        5544.2617

            IN - OUT =         -11.5000              IN - OUT =          -0.2446

 PERCENT DISCREPANCY =          -0.00     PERCENT DISCREPANCY =          -0.00






         TIME SUMMARY AT END OF TIME STEP   53 IN STRESS PERIOD    2
                    SECONDS     MINUTES      HOURS       DAYS        YEARS
                    -----------------------------------------------------------
   TIME STEP LENGTH  86400.      1440.0      24.000      1.0000     2.73785E-03
 STRESS PERIOD TIME 4.57920E+06  76320.      1272.0      53.000     0.14511    
         TOTAL TIME 4.66560E+06  77760.      1296.0      54.000     0.14784    
1

 SOLVING FOR HEAD 

 OUTPUT CONTROL FOR STRESS PERIOD    2   TIME STEP   54
    PRINT HEAD FOR ALL LAYERS
    SAVE HEAD FOR ALL LAYERS
    PRINT BUDGET
    SAVE BUDGET
1
              HEAD IN LAYER   1 AT END OF TIME STEP  54 IN STRESS PERIOD    2
  ---------------------------------------------------------------------------

            1           2           3           4           5           6           7           8           9          10
 ........................................................................................................................
   1    9.991       8.882       7.773       6.664       5.555       4.446       3.338       2.229       1.120      1.1089E-02
   2    9.991       8.882       7.773       6.664       5.555       4.446       3.338       2.229       1.120      1.1089E-02
   3    9.991       8.882       7.773       6.664       5.555       4.446       3.338       2.229       1.120      1.1089E-02
   4    9.991       8.882       7.773       6.664       5.555       4.446       3.338       2.229       1.120      1.1089E-02
   5    9.991       8.882       7.773       6.664       5.555       4.446       3.338       2.229       1.120      1.1089E-02
   6    9.991       8.882       7.773       6.664       5.555       4.446       3.338       2.229       1.120      1.1089E-02
   7    9.991       8.882       7.773       6.664       5.555       4.446       3.338       2.229       1.120      1.1089E-02
   8    9.991       8.882       7.773       6.664       5.555       4.446       3.338       2.229       1.120      1.1089E-02
   9    9.991       8.882       7.773       6.664       5.555       4.446       3.338       2.229       1.120      1.1089E-02
  10    9.991       8.882       7.773       6.664       5.555       4.446       3.338       2.229       1.120      1.1089E-02

 HEAD WILL BE SAVED ON UNIT   51 AT END OF TIME STEP   54, STRESS PERIOD    2
1
  VOLUMETRIC BUDGET FOR ENTIRE MODEL AT END OF TIME STEP   54, STRESS PERIOD   2
  ------------------------------------------------------------------------------

     CUMULATIVE VOLUMES      L**3       RATES FOR THIS TIME STEP      L**3/T
     ------------------                 ------------------------

           IN:                                      IN:
           ---                                      ---
             STORAGE =       24995.3750               STORAGE =           0.0000
       CONSTANT HEAD =           0.0000         CONSTANT HEAD =           0.0000
               WELLS =           0.0000                 WELLS =           0.0000
     HEAD DEP BOUNDS =      291950.3125       HEAD DEP BOUNDS =        5544.0171

            TOTAL IN =      316945.6875              TOTAL IN =        5544.0171

          OUT:                                     OUT:
          ----                                     ----
             STORAGE =           0.0000               STORAGE =           0.0000
       CONSTANT HEAD =           0.0000         CONSTANT HEAD =           0.0000
               WELLS =           0.0000                 WELLS =           0.0000
     HEAD DEP BOUNDS =      316957.4062       HEAD DEP BOUNDS =        5544.2617

           TOTAL OUT =      316957.4062             TOTAL OUT =        5544.2617

            IN - OUT =         -11.7188              IN - OUT =          -0.2446

 PERCENT DISCREPANCY =          -0.00     PERCENT DISCREPANCY =          -0.00






         TIME SUMMARY AT END OF TIME STEP   54 IN STRESS PERIOD    2
                    SECONDS     MINUTES      HOURS       DAYS        YEARS
                    -----------------------------------------------------------
   TIME STEP LENGTH  86400.      1440.0      24.000      1.0000     2.73785E-03
 STRESS PERIOD TIME 4.66560E+06  77760.      1296.0      54.000     0.14784    
         TOTAL TIME 4.75200E+06  79200.      1320.0      55.000     0.15058    
1

 SOLVING FOR HEAD 

 OUTPUT CONTROL FOR STRESS PERIOD    2   TIME STEP   55
    PRINT HEAD FOR ALL LAYERS
    SAVE HEAD FOR ALL LAYERS
    PRINT BUDGET
    SAVE BUDGET
1
              HEAD IN LAYER   1 AT END OF TIME STEP  55 IN STRESS PERIOD    2
  ---------------------------------------------------------------------------

            1           2           3           4           5           6           7           8           9          10
 ........................................................................................................................
   1    9.991       8.882       7.773       6.664       5.555       4.446       3.338       2.229       1.120      1.1089E-02
   2    9.991       8.882       7.773       6.664       5.555       4.446       3.338       2.229       1.120      1.1089E-02
   3    9.991       8.882       7.773       6.664       5.555       4.446       3.338       2.229       1.120      1.1089E-02
   4    9.991       8.882       7.773       6.664       5.555       4.446       3.338       2.229       1.120      1.1089E-02
   5    9.991       8.882       7.773       6.664       5.555       4.446       3.338       2.229       1.120      1.1089E-02
   6    9.991       8.882       7.773       6.664       5.555       4.446       3.338       2.229       1.120      1.1089E-02
   7    9.991       8.882       7.773       6.664       5.555       4.446       3.338       2.229       1.120      1.1089E-02
   8    9.991       8.882       7.773       6.664       5.555       4.446       3.338       2.229       1.120      1.1089E-02
   9    9.991       8.882       7.773       6.664       5.555       4.446       3.338       2.229       1.120      1.1089E-02
  10    9.991       8.882       7.773       6.664       5.555       4.446       3.338       2.229       1.120      1.1089E-02

 HEAD WILL BE SAVED ON UNIT   51 AT END OF TIME STEP   55, STRESS PERIOD    2
1
  VOLUMETRIC BUDGET FOR ENTIRE MODEL AT END OF TIME STEP   55, STRESS PERIOD   2
  ------------------------------------------------------------------------------

     CUMULATIVE VOLUMES      L**3       RATES FOR THIS TIME STEP      L**3/T
     ------------------                 ------------------------

           IN:                                      IN:
           ---                                      ---
             STORAGE =       24995.3750               STORAGE =           0.0000
       CONSTANT HEAD =           0.0000         CONSTANT HEAD =           0.0000
               WELLS =           0.0000                 WELLS =           0.0000
     HEAD DEP BOUNDS =      297494.3438       HEAD DEP BOUNDS =        5544.0171

            TOTAL IN =      322489.7188              TOTAL IN =        5544.0171

          OUT:                                     OUT:
          ----                                     ----
             STORAGE =           0.0000               STORAGE =           0.0000
       CONSTANT HEAD =           0.0000         CONSTANT HEAD =           0.0000
               WELLS =           0.0000                 WELLS =           0.0000
     HEAD DEP BOUNDS =      322501.6562       HEAD DEP BOUNDS =        5544.2617

           TOTAL OUT =      322501.6562             TOTAL OUT =        5544.2617

            IN - OUT =         -11.9375              IN - OUT =          -0.2446

 PERCENT DISCREPANCY =          -0.00     PERCENT DISCREPANCY =          -0.00






         TIME SUMMARY AT END OF TIME STEP   55 IN STRESS PERIOD    2
                    SECONDS     MINUTES      HOURS       DAYS        YEARS
                    -----------------------------------------------------------
   TIME STEP LENGTH  86400.      1440.0      24.000      1.0000     2.73785E-03
 STRESS PERIOD TIME 4.75200E+06  79200.      1320.0      55.000     0.15058    
         TOTAL TIME 4.83840E+06  80640.      1344.0      56.000     0.15332    
1

 SOLVING FOR HEAD 

 OUTPUT CONTROL FOR STRESS PERIOD    2   TIME STEP   56
    PRINT HEAD FOR ALL LAYERS
    SAVE HEAD FOR ALL LAYERS
    PRINT BUDGET
    SAVE BUDGET
1
              HEAD IN LAYER   1 AT END OF TIME STEP  56 IN STRESS PERIOD    2
  ---------------------------------------------------------------------------

            1           2           3           4           5           6           7           8           9          10
 ........................................................................................................................
   1    9.991       8.882       7.773       6.664       5.555       4.446       3.338       2.229       1.120      1.1089E-02
   2    9.991       8.882       7.773       6.664       5.555       4.446       3.338       2.229       1.120      1.1089E-02
   3    9.991       8.882       7.773       6.664       5.555       4.446       3.338       2.229       1.120      1.1089E-02
   4    9.991       8.882       7.773       6.664       5.555       4.446       3.338       2.229       1.120      1.1089E-02
   5    9.991       8.882       7.773       6.664       5.555       4.446       3.338       2.229       1.120      1.1089E-02
   6    9.991       8.882       7.773       6.664       5.555       4.446       3.338       2.229       1.120      1.1089E-02
   7    9.991       8.882       7.773       6.664       5.555       4.446       3.338       2.229       1.120      1.1089E-02
   8    9.991       8.882       7.773       6.664       5.555       4.446       3.338       2.229       1.120      1.1089E-02
   9    9.991       8.882       7.773       6.664       5.555       4.446       3.338       2.229       1.120      1.1089E-02
  10    9.991       8.882       7.773       6.664       5.555       4.446       3.338       2.229       1.120      1.1089E-02

 HEAD WILL BE SAVED ON UNIT   51 AT END OF TIME STEP   56, STRESS PERIOD    2
1
  VOLUMETRIC BUDGET FOR ENTIRE MODEL AT END OF TIME STEP   56, STRESS PERIOD   2
  ------------------------------------------------------------------------------

     CUMULATIVE VOLUMES      L**3       RATES FOR THIS TIME STEP      L**3/T
     ------------------                 ------------------------

           IN:                                      IN:
           ---                                      ---
             STORAGE =       24995.3750               STORAGE =           0.0000
       CONSTANT HEAD =           0.0000         CONSTANT HEAD =           0.0000
               WELLS =           0.0000                 WELLS =           0.0000
     HEAD DEP BOUNDS =      303038.3750       HEAD DEP BOUNDS =        5544.0171

            TOTAL IN =      328033.7500              TOTAL IN =        5544.0171

          OUT:                                     OUT:
          ----                                     ----
             STORAGE =           0.0000               STORAGE =           0.0000
       CONSTANT HEAD =           0.0000         CONSTANT HEAD =           0.0000
               WELLS =           0.0000                 WELLS =           0.0000
     HEAD DEP BOUNDS =      328045.9062       HEAD DEP BOUNDS =        5544.2617

           TOTAL OUT =      328045.9062             TOTAL OUT =        5544.2617

            IN - OUT =         -12.1562              IN - OUT =          -0.2446

 PERCENT DISCREPANCY =          -0.00     PERCENT DISCREPANCY =          -0.00






         TIME SUMMARY AT END OF TIME STEP   56 IN STRESS PERIOD    2
                    SECONDS     MINUTES      HOURS       DAYS        YEARS
                    -----------------------------------------------------------
   TIME STEP LENGTH  86400.      1440.0      24.000      1.0000     2.73785E-03
 STRESS PERIOD TIME 4.83840E+06  80640.      1344.0      56.000     0.15332    
         TOTAL TIME 4.92480E+06  82080.      1368.0      57.000     0.15606    
1

 SOLVING FOR HEAD 

 OUTPUT CONTROL FOR STRESS PERIOD    2   TIME STEP   57
    PRINT HEAD FOR ALL LAYERS
    SAVE HEAD FOR ALL LAYERS
    PRINT BUDGET
    SAVE BUDGET
1
              HEAD IN LAYER   1 AT END OF TIME STEP  57 IN STRESS PERIOD    2
  ---------------------------------------------------------------------------

            1           2           3           4           5           6           7           8           9          10
 ........................................................................................................................
   1    9.991       8.882       7.773       6.664       5.555       4.446       3.338       2.229       1.120      1.1089E-02
   2    9.991       8.882       7.773       6.664       5.555       4.446       3.338       2.229       1.120      1.1089E-02
   3    9.991       8.882       7.773       6.664       5.555       4.446       3.338       2.229       1.120      1.1089E-02
   4    9.991       8.882       7.773       6.664       5.555       4.446       3.338       2.229       1.120      1.1089E-02
   5    9.991       8.882       7.773       6.664       5.555       4.446       3.338       2.229       1.120      1.1089E-02
   6    9.991       8.882       7.773       6.664       5.555       4.446       3.338       2.229       1.120      1.1089E-02
   7    9.991       8.882       7.773       6.664       5.555       4.446       3.338       2.229       1.120      1.1089E-02
   8    9.991       8.882       7.773       6.664       5.555       4.446       3.338       2.229       1.120      1.1089E-02
   9    9.991       8.882       7.773       6.664       5.555       4.446       3.338       2.229       1.120      1.1089E-02
  10    9.991       8.882       7.773       6.664       5.555       4.446       3.338       2.229       1.120      1.1089E-02

 HEAD WILL BE SAVED ON UNIT   51 AT END OF TIME STEP   57, STRESS PERIOD    2
1
  VOLUMETRIC BUDGET FOR ENTIRE MODEL AT END OF TIME STEP   57, STRESS PERIOD   2
  ------------------------------------------------------------------------------

     CUMULATIVE VOLUMES      L**3       RATES FOR THIS TIME STEP      L**3/T
     ------------------                 ------------------------

           IN:                                      IN:
           ---                                      ---
             STORAGE =       24995.3750               STORAGE =           0.0000
       CONSTANT HEAD =           0.0000         CONSTANT HEAD =           0.0000
               WELLS =           0.0000                 WELLS =           0.0000
     HEAD DEP BOUNDS =      308582.4062       HEAD DEP BOUNDS =        5544.0171

            TOTAL IN =      333577.7812              TOTAL IN =        5544.0171

          OUT:                                     OUT:
          ----                                     ----
             STORAGE =           0.0000               STORAGE =           0.0000
       CONSTANT HEAD =           0.0000         CONSTANT HEAD =           0.0000
               WELLS =           0.0000                 WELLS =           0.0000
     HEAD DEP BOUNDS =      333590.1562       HEAD DEP BOUNDS =        5544.2617

           TOTAL OUT =      333590.1562             TOTAL OUT =        5544.2617

            IN - OUT =         -12.3750              IN - OUT =          -0.2446

 PERCENT DISCREPANCY =          -0.00     PERCENT DISCREPANCY =          -0.00






         TIME SUMMARY AT END OF TIME STEP   57 IN STRESS PERIOD    2
                    SECONDS     MINUTES      HOURS       DAYS        YEARS
                    -----------------------------------------------------------
   TIME STEP LENGTH  86400.      1440.0      24.000      1.0000     2.73785E-03
 STRESS PERIOD TIME 4.92480E+06  82080.      1368.0      57.000     0.15606    
         TOTAL TIME 5.01120E+06  83520.      1392.0      58.000     0.15880    
1

 SOLVING FOR HEAD 

 OUTPUT CONTROL FOR STRESS PERIOD    2   TIME STEP   58
    PRINT HEAD FOR ALL LAYERS
    SAVE HEAD FOR ALL LAYERS
    PRINT BUDGET
    SAVE BUDGET
1
              HEAD IN LAYER   1 AT END OF TIME STEP  58 IN STRESS PERIOD    2
  ---------------------------------------------------------------------------

            1           2           3           4           5           6           7           8           9          10
 ........................................................................................................................
   1    9.991       8.882       7.773       6.664       5.555       4.446       3.338       2.229       1.120      1.1089E-02
   2    9.991       8.882       7.773       6.664       5.555       4.446       3.338       2.229       1.120      1.1089E-02
   3    9.991       8.882       7.773       6.664       5.555       4.446       3.338       2.229       1.120      1.1089E-02
   4    9.991       8.882       7.773       6.664       5.555       4.446       3.338       2.229       1.120      1.1089E-02
   5    9.991       8.882       7.773       6.664       5.555       4.446       3.338       2.229       1.120      1.1089E-02
   6    9.991       8.882       7.773       6.664       5.555       4.446       3.338       2.229       1.120      1.1089E-02
   7    9.991       8.882       7.773       6.664       5.555       4.446       3.338       2.229       1.120      1.1089E-02
   8    9.991       8.882       7.773       6.664       5.555       4.446       3.338       2.229       1.120      1.1089E-02
   9    9.991       8.882       7.773       6.664       5.555       4.446       3.338       2.229       1.120      1.1089E-02
  10    9.991       8.882       7.773       6.664       5.555       4.446       3.338       2.229       1.120      1.1089E-02

 HEAD WILL BE SAVED ON UNIT   51 AT END OF TIME STEP   58, STRESS PERIOD    2
1
  VOLUMETRIC BUDGET FOR ENTIRE MODEL AT END OF TIME STEP   58, STRESS PERIOD   2
  ------------------------------------------------------------------------------

     CUMULATIVE VOLUMES      L**3       RATES FOR THIS TIME STEP      L**3/T
     ------------------                 ------------------------

           IN:                                      IN:
           ---                                      ---
             STORAGE =       24995.3750               STORAGE =           0.0000
       CONSTANT HEAD =           0.0000         CONSTANT HEAD =           0.0000
               WELLS =           0.0000                 WELLS =           0.0000
     HEAD DEP BOUNDS =      314126.4375       HEAD DEP BOUNDS =        5544.0171

            TOTAL IN =      339121.8125              TOTAL IN =        5544.0171

          OUT:                                     OUT:
          ----                                     ----
             STORAGE =           0.0000               STORAGE =           0.0000
       CONSTANT HEAD =           0.0000         CONSTANT HEAD =           0.0000
               WELLS =           0.0000                 WELLS =           0.0000
     HEAD DEP BOUNDS =      339134.4062       HEAD DEP BOUNDS =        5544.2617

           TOTAL OUT =      339134.4062             TOTAL OUT =        5544.2617

            IN - OUT =         -12.5938              IN - OUT =          -0.2446

 PERCENT DISCREPANCY =          -0.00     PERCENT DISCREPANCY =          -0.00






         TIME SUMMARY AT END OF TIME STEP   58 IN STRESS PERIOD    2
                    SECONDS     MINUTES      HOURS       DAYS        YEARS
                    -----------------------------------------------------------
   TIME STEP LENGTH  86400.      1440.0      24.000      1.0000     2.73785E-03
 STRESS PERIOD TIME 5.01120E+06  83520.      1392.0      58.000     0.15880    
         TOTAL TIME 5.09760E+06  84960.      1416.0      59.000     0.16153    
1

 SOLVING FOR HEAD 

 OUTPUT CONTROL FOR STRESS PERIOD    2   TIME STEP   59
    PRINT HEAD FOR ALL LAYERS
    SAVE HEAD FOR ALL LAYERS
    PRINT BUDGET
    SAVE BUDGET
1
              HEAD IN LAYER   1 AT END OF TIME STEP  59 IN STRESS PERIOD    2
  ---------------------------------------------------------------------------

            1           2           3           4           5           6           7           8           9          10
 ........................................................................................................................
   1    9.991       8.882       7.773       6.664       5.555       4.446       3.338       2.229       1.120      1.1089E-02
   2    9.991       8.882       7.773       6.664       5.555       4.446       3.338       2.229       1.120      1.1089E-02
   3    9.991       8.882       7.773       6.664       5.555       4.446       3.338       2.229       1.120      1.1089E-02
   4    9.991       8.882       7.773       6.664       5.555       4.446       3.338       2.229       1.120      1.1089E-02
   5    9.991       8.882       7.773       6.664       5.555       4.446       3.338       2.229       1.120      1.1089E-02
   6    9.991       8.882       7.773       6.664       5.555       4.446       3.338       2.229       1.120      1.1089E-02
   7    9.991       8.882       7.773       6.664       5.555       4.446       3.338       2.229       1.120      1.1089E-02
   8    9.991       8.882       7.773       6.664       5.555       4.446       3.338       2.229       1.120      1.1089E-02
   9    9.991       8.882       7.773       6.664       5.555       4.446       3.338       2.229       1.120      1.1089E-02
  10    9.991       8.882       7.773       6.664       5.555       4.446       3.338       2.229       1.120      1.1089E-02

 HEAD WILL BE SAVED ON UNIT   51 AT END OF TIME STEP   59, STRESS PERIOD    2
1
  VOLUMETRIC BUDGET FOR ENTIRE MODEL AT END OF TIME STEP   59, STRESS PERIOD   2
  ------------------------------------------------------------------------------

     CUMULATIVE VOLUMES      L**3       RATES FOR THIS TIME STEP      L**3/T
     ------------------                 ------------------------

           IN:                                      IN:
           ---                                      ---
             STORAGE =       24995.3750               STORAGE =           0.0000
       CONSTANT HEAD =           0.0000         CONSTANT HEAD =           0.0000
               WELLS =           0.0000                 WELLS =           0.0000
     HEAD DEP BOUNDS =      319670.4688       HEAD DEP BOUNDS =        5544.0171

            TOTAL IN =      344665.8438              TOTAL IN =        5544.0171

          OUT:                                     OUT:
          ----                                     ----
             STORAGE =           0.0000               STORAGE =           0.0000
       CONSTANT HEAD =           0.0000         CONSTANT HEAD =           0.0000
               WELLS =           0.0000                 WELLS =           0.0000
     HEAD DEP BOUNDS =      344678.6562       HEAD DEP BOUNDS =        5544.2617

           TOTAL OUT =      344678.6562             TOTAL OUT =        5544.2617

            IN - OUT =         -12.8125              IN - OUT =          -0.2446

 PERCENT DISCREPANCY =          -0.00     PERCENT DISCREPANCY =          -0.00






         TIME SUMMARY AT END OF TIME STEP   59 IN STRESS PERIOD    2
                    SECONDS     MINUTES      HOURS       DAYS        YEARS
                    -----------------------------------------------------------
   TIME STEP LENGTH  86400.      1440.0      24.000      1.0000     2.73785E-03
 STRESS PERIOD TIME 5.09760E+06  84960.      1416.0      59.000     0.16153    
         TOTAL TIME 5.18400E+06  86400.      1440.0      60.000     0.16427    
1

 SOLVING FOR HEAD 

 OUTPUT CONTROL FOR STRESS PERIOD    2   TIME STEP   60
    PRINT HEAD FOR ALL LAYERS
    SAVE HEAD FOR ALL LAYERS
    PRINT BUDGET
    SAVE BUDGET
1
              HEAD IN LAYER   1 AT END OF TIME STEP  60 IN STRESS PERIOD    2
  ---------------------------------------------------------------------------

            1           2           3           4           5           6           7           8           9          10
 ........................................................................................................................
   1    9.991       8.882       7.773       6.664       5.555       4.446       3.338       2.229       1.120      1.1089E-02
   2    9.991       8.882       7.773       6.664       5.555       4.446       3.338       2.229       1.120      1.1089E-02
   3    9.991       8.882       7.773       6.664       5.555       4.446       3.338       2.229       1.120      1.1089E-02
   4    9.991       8.882       7.773       6.664       5.555       4.446       3.338       2.229       1.120      1.1089E-02
   5    9.991       8.882       7.773       6.664       5.555       4.446       3.338       2.229       1.120      1.1089E-02
   6    9.991       8.882       7.773       6.664       5.555       4.446       3.338       2.229       1.120      1.1089E-02
   7    9.991       8.882       7.773       6.664       5.555       4.446       3.338       2.229       1.120      1.1089E-02
   8    9.991       8.882       7.773       6.664       5.555       4.446       3.338       2.229       1.120      1.1089E-02
   9    9.991       8.882       7.773       6.664       5.555       4.446       3.338       2.229       1.120      1.1089E-02
  10    9.991       8.882       7.773       6.664       5.555       4.446       3.338       2.229       1.120      1.1089E-02

 HEAD WILL BE SAVED ON UNIT   51 AT END OF TIME STEP   60, STRESS PERIOD    2
1
  VOLUMETRIC BUDGET FOR ENTIRE MODEL AT END OF TIME STEP   60, STRESS PERIOD   2
  ------------------------------------------------------------------------------

     CUMULATIVE VOLUMES      L**3       RATES FOR THIS TIME STEP      L**3/T
     ------------------                 ------------------------

           IN:                                      IN:
           ---                                      ---
             STORAGE =       24995.3750               STORAGE =           0.0000
       CONSTANT HEAD =           0.0000         CONSTANT HEAD =           0.0000
               WELLS =           0.0000                 WELLS =           0.0000
     HEAD DEP BOUNDS =      325214.5000       HEAD DEP BOUNDS =        5544.0171

            TOTAL IN =      350209.8750              TOTAL IN =        5544.0171

          OUT:                                     OUT:
          ----                                     ----
             STORAGE =           0.0000               STORAGE =           0.0000
       CONSTANT HEAD =           0.0000         CONSTANT HEAD =           0.0000
               WELLS =           0.0000                 WELLS =           0.0000
     HEAD DEP BOUNDS =      350222.9062       HEAD DEP BOUNDS =        5544.2617

           TOTAL OUT =      350222.9062             TOTAL OUT =        5544.2617

            IN - OUT =         -13.0312              IN - OUT =          -0.2446

 PERCENT DISCREPANCY =          -0.00     PERCENT DISCREPANCY =          -0.00






         TIME SUMMARY AT END OF TIME STEP   60 IN STRESS PERIOD    2
                    SECONDS     MINUTES      HOURS       DAYS        YEARS
                    -----------------------------------------------------------
   TIME STEP LENGTH  86400.      1440.0      24.000      1.0000     2.73785E-03
 STRESS PERIOD TIME 5.18400E+06  86400.      1440.0      60.000     0.16427    
         TOTAL TIME 5.27040E+06  87840.      1464.0      61.000     0.16701    
1

 SOLVING FOR HEAD 

 OUTPUT CONTROL FOR STRESS PERIOD    2   TIME STEP   61
    PRINT HEAD FOR ALL LAYERS
    SAVE HEAD FOR ALL LAYERS
    PRINT BUDGET
    SAVE BUDGET
1
              HEAD IN LAYER   1 AT END OF TIME STEP  61 IN STRESS PERIOD    2
  ---------------------------------------------------------------------------

            1           2           3           4           5           6           7           8           9          10
 ........................................................................................................................
   1    9.991       8.882       7.773       6.664       5.555       4.446       3.338       2.229       1.120      1.1089E-02
   2    9.991       8.882       7.773       6.664       5.555       4.446       3.338       2.229       1.120      1.1089E-02
   3    9.991       8.882       7.773       6.664       5.555       4.446       3.338       2.229       1.120      1.1089E-02
   4    9.991       8.882       7.773       6.664       5.555       4.446       3.338       2.229       1.120      1.1089E-02
   5    9.991       8.882       7.773       6.664       5.555       4.446       3.338       2.229       1.120      1.1089E-02
   6    9.991       8.882       7.773       6.664       5.555       4.446       3.338       2.229       1.120      1.1089E-02
   7    9.991       8.882       7.773       6.664       5.555       4.446       3.338       2.229       1.120      1.1089E-02
   8    9.991       8.882       7.773       6.664       5.555       4.446       3.338       2.229       1.120      1.1089E-02
   9    9.991       8.882       7.773       6.664       5.555       4.446       3.338       2.229       1.120      1.1089E-02
  10    9.991       8.882       7.773       6.664       5.555       4.446       3.338       2.229       1.120      1.1089E-02

 HEAD WILL BE SAVED ON UNIT   51 AT END OF TIME STEP   61, STRESS PERIOD    2
1
  VOLUMETRIC BUDGET FOR ENTIRE MODEL AT END OF TIME STEP   61, STRESS PERIOD   2
  ------------------------------------------------------------------------------

     CUMULATIVE VOLUMES      L**3       RATES FOR THIS TIME STEP      L**3/T
     ------------------                 ------------------------

           IN:                                      IN:
           ---                                      ---
             STORAGE =       24995.3750               STORAGE =           0.0000
       CONSTANT HEAD =           0.0000         CONSTANT HEAD =           0.0000
               WELLS =           0.0000                 WELLS =           0.0000
     HEAD DEP BOUNDS =      330758.5312       HEAD DEP BOUNDS =        5544.0171

            TOTAL IN =      355753.9062              TOTAL IN =        5544.0171

          OUT:                                     OUT:
          ----                                     ----
             STORAGE =           0.0000               STORAGE =           0.0000
       CONSTANT HEAD =           0.0000         CONSTANT HEAD =           0.0000
               WELLS =           0.0000                 WELLS =           0.0000
     HEAD DEP BOUNDS =      355767.1562       HEAD DEP BOUNDS =        5544.2617

           TOTAL OUT =      355767.1562             TOTAL OUT =        5544.2617

            IN - OUT =         -13.2500              IN - OUT =          -0.2446

 PERCENT DISCREPANCY =          -0.00     PERCENT DISCREPANCY =          -0.00






         TIME SUMMARY AT END OF TIME STEP   61 IN STRESS PERIOD    2
                    SECONDS     MINUTES      HOURS       DAYS        YEARS
                    -----------------------------------------------------------
   TIME STEP LENGTH  86400.      1440.0      24.000      1.0000     2.73785E-03
 STRESS PERIOD TIME 5.27040E+06  87840.      1464.0      61.000     0.16701    
         TOTAL TIME 5.35680E+06  89280.      1488.0      62.000     0.16975    
1

 SOLVING FOR HEAD 

 OUTPUT CONTROL FOR STRESS PERIOD    2   TIME STEP   62
    PRINT HEAD FOR ALL LAYERS
    SAVE HEAD FOR ALL LAYERS
    PRINT BUDGET
    SAVE BUDGET
1
              HEAD IN LAYER   1 AT END OF TIME STEP  62 IN STRESS PERIOD    2
  ---------------------------------------------------------------------------

            1           2           3           4           5           6           7           8           9          10
 ........................................................................................................................
   1    9.991       8.882       7.773       6.664       5.555       4.446       3.338       2.229       1.120      1.1089E-02
   2    9.991       8.882       7.773       6.664       5.555       4.446       3.338       2.229       1.120      1.1089E-02
   3    9.991       8.882       7.773       6.664       5.555       4.446       3.338       2.229       1.120      1.1089E-02
   4    9.991       8.882       7.773       6.664       5.555       4.446       3.338       2.229       1.120      1.1089E-02
   5    9.991       8.882       7.773       6.664       5.555       4.446       3.338       2.229       1.120      1.1089E-02
   6    9.991       8.882       7.773       6.664       5.555       4.446       3.338       2.229       1.120      1.1089E-02
   7    9.991       8.882       7.773       6.664       5.555       4.446       3.338       2.229       1.120      1.1089E-02
   8    9.991       8.882       7.773       6.664       5.555       4.446       3.338       2.229       1.120      1.1089E-02
   9    9.991       8.882       7.773       6.664       5.555       4.446       3.338       2.229       1.120      1.1089E-02
  10    9.991       8.882       7.773       6.664       5.555       4.446       3.338       2.229       1.120      1.1089E-02

 HEAD WILL BE SAVED ON UNIT   51 AT END OF TIME STEP   62, STRESS PERIOD    2
1
  VOLUMETRIC BUDGET FOR ENTIRE MODEL AT END OF TIME STEP   62, STRESS PERIOD   2
  ------------------------------------------------------------------------------

     CUMULATIVE VOLUMES      L**3       RATES FOR THIS TIME STEP      L**3/T
     ------------------                 ------------------------

           IN:                                      IN:
           ---                                      ---
             STORAGE =       24995.3750               STORAGE =           0.0000
       CONSTANT HEAD =           0.0000         CONSTANT HEAD =           0.0000
               WELLS =           0.0000                 WELLS =           0.0000
     HEAD DEP BOUNDS =      336302.5625       HEAD DEP BOUNDS =        5544.0171

            TOTAL IN =      361297.9375              TOTAL IN =        5544.0171

          OUT:                                     OUT:
          ----                                     ----
             STORAGE =           0.0000               STORAGE =           0.0000
       CONSTANT HEAD =           0.0000         CONSTANT HEAD =           0.0000
               WELLS =           0.0000                 WELLS =           0.0000
     HEAD DEP BOUNDS =      361311.4062       HEAD DEP BOUNDS =        5544.2617

           TOTAL OUT =      361311.4062             TOTAL OUT =        5544.2617

            IN - OUT =         -13.4688              IN - OUT =          -0.2446

 PERCENT DISCREPANCY =          -0.00     PERCENT DISCREPANCY =          -0.00






         TIME SUMMARY AT END OF TIME STEP   62 IN STRESS PERIOD    2
                    SECONDS     MINUTES      HOURS       DAYS        YEARS
                    -----------------------------------------------------------
   TIME STEP LENGTH  86400.      1440.0      24.000      1.0000     2.73785E-03
 STRESS PERIOD TIME 5.35680E+06  89280.      1488.0      62.000     0.16975    
         TOTAL TIME 5.44320E+06  90720.      1512.0      63.000     0.17248    
1

 SOLVING FOR HEAD 

 OUTPUT CONTROL FOR STRESS PERIOD    2   TIME STEP   63
    PRINT HEAD FOR ALL LAYERS
    SAVE HEAD FOR ALL LAYERS
    PRINT BUDGET
    SAVE BUDGET
1
              HEAD IN LAYER   1 AT END OF TIME STEP  63 IN STRESS PERIOD    2
  ---------------------------------------------------------------------------

            1           2           3           4           5           6           7           8           9          10
 ........................................................................................................................
   1    9.991       8.882       7.773       6.664       5.555       4.446       3.338       2.229       1.120      1.1089E-02
   2    9.991       8.882       7.773       6.664       5.555       4.446       3.338       2.229       1.120      1.1089E-02
   3    9.991       8.882       7.773       6.664       5.555       4.446       3.338       2.229       1.120      1.1089E-02
   4    9.991       8.882       7.773       6.664       5.555       4.446       3.338       2.229       1.120      1.1089E-02
   5    9.991       8.882       7.773       6.664       5.555       4.446       3.338       2.229       1.120      1.1089E-02
   6    9.991       8.882       7.773       6.664       5.555       4.446       3.338       2.229       1.120      1.1089E-02
   7    9.991       8.882       7.773       6.664       5.555       4.446       3.338       2.229       1.120      1.1089E-02
   8    9.991       8.882       7.773       6.664       5.555       4.446       3.338       2.229       1.120      1.1089E-02
   9    9.991       8.882       7.773       6.664       5.555       4.446       3.338       2.229       1.120      1.1089E-02
  10    9.991       8.882       7.773       6.664       5.555       4.446       3.338       2.229       1.120      1.1089E-02

 HEAD WILL BE SAVED ON UNIT   51 AT END OF TIME STEP   63, STRESS PERIOD    2
1
  VOLUMETRIC BUDGET FOR ENTIRE MODEL AT END OF TIME STEP   63, STRESS PERIOD   2
  ------------------------------------------------------------------------------

     CUMULATIVE VOLUMES      L**3       RATES FOR THIS TIME STEP      L**3/T
     ------------------                 ------------------------

           IN:                                      IN:
           ---                                      ---
             STORAGE =       24995.3750               STORAGE =           0.0000
       CONSTANT HEAD =           0.0000         CONSTANT HEAD =           0.0000
               WELLS =           0.0000                 WELLS =           0.0000
     HEAD DEP BOUNDS =      341846.5938       HEAD DEP BOUNDS =        5544.0171

            TOTAL IN =      366841.9688              TOTAL IN =        5544.0171

          OUT:                                     OUT:
          ----                                     ----
             STORAGE =           0.0000               STORAGE =           0.0000
       CONSTANT HEAD =           0.0000         CONSTANT HEAD =           0.0000
               WELLS =           0.0000                 WELLS =           0.0000
     HEAD DEP BOUNDS =      366855.6562       HEAD DEP BOUNDS =        5544.2617

           TOTAL OUT =      366855.6562             TOTAL OUT =        5544.2617

            IN - OUT =         -13.6875              IN - OUT =          -0.2446

 PERCENT DISCREPANCY =          -0.00     PERCENT DISCREPANCY =          -0.00






         TIME SUMMARY AT END OF TIME STEP   63 IN STRESS PERIOD    2
                    SECONDS     MINUTES      HOURS       DAYS        YEARS
                    -----------------------------------------------------------
   TIME STEP LENGTH  86400.      1440.0      24.000      1.0000     2.73785E-03
 STRESS PERIOD TIME 5.44320E+06  90720.      1512.0      63.000     0.17248    
         TOTAL TIME 5.52960E+06  92160.      1536.0      64.000     0.17522    
1

 SOLVING FOR HEAD 

 OUTPUT CONTROL FOR STRESS PERIOD    2   TIME STEP   64
    PRINT HEAD FOR ALL LAYERS
    SAVE HEAD FOR ALL LAYERS
    PRINT BUDGET
    SAVE BUDGET
1
              HEAD IN LAYER   1 AT END OF TIME STEP  64 IN STRESS PERIOD    2
  ---------------------------------------------------------------------------

            1           2           3           4           5           6           7           8           9          10
 ........................................................................................................................
   1    9.991       8.882       7.773       6.664       5.555       4.446       3.338       2.229       1.120      1.1089E-02
   2    9.991       8.882       7.773       6.664       5.555       4.446       3.338       2.229       1.120      1.1089E-02
   3    9.991       8.882       7.773       6.664       5.555       4.446       3.338       2.229       1.120      1.1089E-02
   4    9.991       8.882       7.773       6.664       5.555       4.446       3.338       2.229       1.120      1.1089E-02
   5    9.991       8.882       7.773       6.664       5.555       4.446       3.338       2.229       1.120      1.1089E-02
   6    9.991       8.882       7.773       6.664       5.555       4.446       3.338       2.229       1.120      1.1089E-02
   7    9.991       8.882       7.773       6.664       5.555       4.446       3.338       2.229       1.120      1.1089E-02
   8    9.991       8.882       7.773       6.664       5.555       4.446       3.338       2.229       1.120      1.1089E-02
   9    9.991       8.882       7.773       6.664       5.555       4.446       3.338       2.229       1.120      1.1089E-02
  10    9.991       8.882       7.773       6.664       5.555       4.446       3.338       2.229       1.120      1.1089E-02

 HEAD WILL BE SAVED ON UNIT   51 AT END OF TIME STEP   64, STRESS PERIOD    2
1
  VOLUMETRIC BUDGET FOR ENTIRE MODEL AT END OF TIME STEP   64, STRESS PERIOD   2
  ------------------------------------------------------------------------------

     CUMULATIVE VOLUMES      L**3       RATES FOR THIS TIME STEP      L**3/T
     ------------------                 ------------------------

           IN:                                      IN:
           ---                                      ---
             STORAGE =       24995.3750               STORAGE =           0.0000
       CONSTANT HEAD =           0.0000         CONSTANT HEAD =           0.0000
               WELLS =           0.0000                 WELLS =           0.0000
     HEAD DEP BOUNDS =      347390.6250       HEAD DEP BOUNDS =        5544.0171

            TOTAL IN =      372386.0000              TOTAL IN =        5544.0171

          OUT:                                     OUT:
          ----                                     ----
             STORAGE =           0.0000               STORAGE =           0.0000
       CONSTANT HEAD =           0.0000         CONSTANT HEAD =           0.0000
               WELLS =           0.0000                 WELLS =           0.0000
     HEAD DEP BOUNDS =      372399.9062       HEAD DEP BOUNDS =        5544.2617

           TOTAL OUT =      372399.9062             TOTAL OUT =        5544.2617

            IN - OUT =         -13.9062              IN - OUT =          -0.2446

 PERCENT DISCREPANCY =          -0.00     PERCENT DISCREPANCY =          -0.00






         TIME SUMMARY AT END OF TIME STEP   64 IN STRESS PERIOD    2
                    SECONDS     MINUTES      HOURS       DAYS        YEARS
                    -----------------------------------------------------------
   TIME STEP LENGTH  86400.      1440.0      24.000      1.0000     2.73785E-03
 STRESS PERIOD TIME 5.52960E+06  92160.      1536.0      64.000     0.17522    
         TOTAL TIME 5.61600E+06  93600.      1560.0      65.000     0.17796    
1

 SOLVING FOR HEAD 

 OUTPUT CONTROL FOR STRESS PERIOD    2   TIME STEP   65
    PRINT HEAD FOR ALL LAYERS
    SAVE HEAD FOR ALL LAYERS
    PRINT BUDGET
    SAVE BUDGET
1
              HEAD IN LAYER   1 AT END OF TIME STEP  65 IN STRESS PERIOD    2
  ---------------------------------------------------------------------------

            1           2           3           4           5           6           7           8           9          10
 ........................................................................................................................
   1    9.991       8.882       7.773       6.664       5.555       4.446       3.338       2.229       1.120      1.1089E-02
   2    9.991       8.882       7.773       6.664       5.555       4.446       3.338       2.229       1.120      1.1089E-02
   3    9.991       8.882       7.773       6.664       5.555       4.446       3.338       2.229       1.120      1.1089E-02
   4    9.991       8.882       7.773       6.664       5.555       4.446       3.338       2.229       1.120      1.1089E-02
   5    9.991       8.882       7.773       6.664       5.555       4.446       3.338       2.229       1.120      1.1089E-02
   6    9.991       8.882       7.773       6.664       5.555       4.446       3.338       2.229       1.120      1.1089E-02
   7    9.991       8.882       7.773       6.664       5.555       4.446       3.338       2.229       1.120      1.1089E-02
   8    9.991       8.882       7.773       6.664       5.555       4.446       3.338       2.229       1.120      1.1089E-02
   9    9.991       8.882       7.773       6.664       5.555       4.446       3.338       2.229       1.120      1.1089E-02
  10    9.991       8.882       7.773       6.664       5.555       4.446       3.338       2.229       1.120      1.1089E-02

 HEAD WILL BE SAVED ON UNIT   51 AT END OF TIME STEP   65, STRESS PERIOD    2
1
  VOLUMETRIC BUDGET FOR ENTIRE MODEL AT END OF TIME STEP   65, STRESS PERIOD   2
  ------------------------------------------------------------------------------

     CUMULATIVE VOLUMES      L**3       RATES FOR THIS TIME STEP      L**3/T
     ------------------                 ------------------------

           IN:                                      IN:
           ---                                      ---
             STORAGE =       24995.3750               STORAGE =           0.0000
       CONSTANT HEAD =           0.0000         CONSTANT HEAD =           0.0000
               WELLS =           0.0000                 WELLS =           0.0000
     HEAD DEP BOUNDS =      352934.6562       HEAD DEP BOUNDS =        5544.0171

            TOTAL IN =      377930.0312              TOTAL IN =        5544.0171

          OUT:                                     OUT:
          ----                                     ----
             STORAGE =           0.0000               STORAGE =           0.0000
       CONSTANT HEAD =           0.0000         CONSTANT HEAD =           0.0000
               WELLS =           0.0000                 WELLS =           0.0000
     HEAD DEP BOUNDS =      377944.1562       HEAD DEP BOUNDS =        5544.2617

           TOTAL OUT =      377944.1562             TOTAL OUT =        5544.2617

            IN - OUT =         -14.1250              IN - OUT =          -0.2446

 PERCENT DISCREPANCY =          -0.00     PERCENT DISCREPANCY =          -0.00






         TIME SUMMARY AT END OF TIME STEP   65 IN STRESS PERIOD    2
                    SECONDS     MINUTES      HOURS       DAYS        YEARS
                    -----------------------------------------------------------
   TIME STEP LENGTH  86400.      1440.0      24.000      1.0000     2.73785E-03
 STRESS PERIOD TIME 5.61600E+06  93600.      1560.0      65.000     0.17796    
         TOTAL TIME 5.70240E+06  95040.      1584.0      66.000     0.18070    
1

 SOLVING FOR HEAD 

 OUTPUT CONTROL FOR STRESS PERIOD    2   TIME STEP   66
    PRINT HEAD FOR ALL LAYERS
    SAVE HEAD FOR ALL LAYERS
    PRINT BUDGET
    SAVE BUDGET
1
              HEAD IN LAYER   1 AT END OF TIME STEP  66 IN STRESS PERIOD    2
  ---------------------------------------------------------------------------

            1           2           3           4           5           6           7           8           9          10
 ........................................................................................................................
   1    9.991       8.882       7.773       6.664       5.555       4.446       3.338       2.229       1.120      1.1089E-02
   2    9.991       8.882       7.773       6.664       5.555       4.446       3.338       2.229       1.120      1.1089E-02
   3    9.991       8.882       7.773       6.664       5.555       4.446       3.338       2.229       1.120      1.1089E-02
   4    9.991       8.882       7.773       6.664       5.555       4.446       3.338       2.229       1.120      1.1089E-02
   5    9.991       8.882       7.773       6.664       5.555       4.446       3.338       2.229       1.120      1.1089E-02
   6    9.991       8.882       7.773       6.664       5.555       4.446       3.338       2.229       1.120      1.1089E-02
   7    9.991       8.882       7.773       6.664       5.555       4.446       3.338       2.229       1.120      1.1089E-02
   8    9.991       8.882       7.773       6.664       5.555       4.446       3.338       2.229       1.120      1.1089E-02
   9    9.991       8.882       7.773       6.664       5.555       4.446       3.338       2.229       1.120      1.1089E-02
  10    9.991       8.882       7.773       6.664       5.555       4.446       3.338       2.229       1.120      1.1089E-02

 HEAD WILL BE SAVED ON UNIT   51 AT END OF TIME STEP   66, STRESS PERIOD    2
1
  VOLUMETRIC BUDGET FOR ENTIRE MODEL AT END OF TIME STEP   66, STRESS PERIOD   2
  ------------------------------------------------------------------------------

     CUMULATIVE VOLUMES      L**3       RATES FOR THIS TIME STEP      L**3/T
     ------------------                 ------------------------

           IN:                                      IN:
           ---                                      ---
             STORAGE =       24995.3750               STORAGE =           0.0000
       CONSTANT HEAD =           0.0000         CONSTANT HEAD =           0.0000
               WELLS =           0.0000                 WELLS =           0.0000
     HEAD DEP BOUNDS =      358478.6875       HEAD DEP BOUNDS =        5544.0171

            TOTAL IN =      383474.0625              TOTAL IN =        5544.0171

          OUT:                                     OUT:
          ----                                     ----
             STORAGE =           0.0000               STORAGE =           0.0000
       CONSTANT HEAD =           0.0000         CONSTANT HEAD =           0.0000
               WELLS =           0.0000                 WELLS =           0.0000
     HEAD DEP BOUNDS =      383488.4062       HEAD DEP BOUNDS =        5544.2617

           TOTAL OUT =      383488.4062             TOTAL OUT =        5544.2617

            IN - OUT =         -14.3438              IN - OUT =          -0.2446

 PERCENT DISCREPANCY =          -0.00     PERCENT DISCREPANCY =          -0.00






         TIME SUMMARY AT END OF TIME STEP   66 IN STRESS PERIOD    2
                    SECONDS     MINUTES      HOURS       DAYS        YEARS
                    -----------------------------------------------------------
   TIME STEP LENGTH  86400.      1440.0      24.000      1.0000     2.73785E-03
 STRESS PERIOD TIME 5.70240E+06  95040.      1584.0      66.000     0.18070    
         TOTAL TIME 5.78880E+06  96480.      1608.0      67.000     0.18344    
1

 SOLVING FOR HEAD 

 OUTPUT CONTROL FOR STRESS PERIOD    2   TIME STEP   67
    PRINT HEAD FOR ALL LAYERS
    SAVE HEAD FOR ALL LAYERS
    PRINT BUDGET
    SAVE BUDGET
1
              HEAD IN LAYER   1 AT END OF TIME STEP  67 IN STRESS PERIOD    2
  ---------------------------------------------------------------------------

            1           2           3           4           5           6           7           8           9          10
 ........................................................................................................................
   1    9.991       8.882       7.773       6.664       5.555       4.446       3.338       2.229       1.120      1.1089E-02
   2    9.991       8.882       7.773       6.664       5.555       4.446       3.338       2.229       1.120      1.1089E-02
   3    9.991       8.882       7.773       6.664       5.555       4.446       3.338       2.229       1.120      1.1089E-02
   4    9.991       8.882       7.773       6.664       5.555       4.446       3.338       2.229       1.120      1.1089E-02
   5    9.991       8.882       7.773       6.664       5.555       4.446       3.338       2.229       1.120      1.1089E-02
   6    9.991       8.882       7.773       6.664       5.555       4.446       3.338       2.229       1.120      1.1089E-02
   7    9.991       8.882       7.773       6.664       5.555       4.446       3.338       2.229       1.120      1.1089E-02
   8    9.991       8.882       7.773       6.664       5.555       4.446       3.338       2.229       1.120      1.1089E-02
   9    9.991       8.882       7.773       6.664       5.555       4.446       3.338       2.229       1.120      1.1089E-02
  10    9.991       8.882       7.773       6.664       5.555       4.446       3.338       2.229       1.120      1.1089E-02

 HEAD WILL BE SAVED ON UNIT   51 AT END OF TIME STEP   67, STRESS PERIOD    2
1
  VOLUMETRIC BUDGET FOR ENTIRE MODEL AT END OF TIME STEP   67, STRESS PERIOD   2
  ------------------------------------------------------------------------------

     CUMULATIVE VOLUMES      L**3       RATES FOR THIS TIME STEP      L**3/T
     ------------------                 ------------------------

           IN:                                      IN:
           ---                                      ---
             STORAGE =       24995.3750               STORAGE =           0.0000
       CONSTANT HEAD =           0.0000         CONSTANT HEAD =           0.0000
               WELLS =           0.0000                 WELLS =           0.0000
     HEAD DEP BOUNDS =      364022.7188       HEAD DEP BOUNDS =        5544.0171

            TOTAL IN =      389018.0938              TOTAL IN =        5544.0171

          OUT:                                     OUT:
          ----                                     ----
             STORAGE =           0.0000               STORAGE =           0.0000
       CONSTANT HEAD =           0.0000         CONSTANT HEAD =           0.0000
               WELLS =           0.0000                 WELLS =           0.0000
     HEAD DEP BOUNDS =      389032.6562       HEAD DEP BOUNDS =        5544.2617

           TOTAL OUT =      389032.6562             TOTAL OUT =        5544.2617

            IN - OUT =         -14.5625              IN - OUT =          -0.2446

 PERCENT DISCREPANCY =          -0.00     PERCENT DISCREPANCY =          -0.00






         TIME SUMMARY AT END OF TIME STEP   67 IN STRESS PERIOD    2
                    SECONDS     MINUTES      HOURS       DAYS        YEARS
                    -----------------------------------------------------------
   TIME STEP LENGTH  86400.      1440.0      24.000      1.0000     2.73785E-03
 STRESS PERIOD TIME 5.78880E+06  96480.      1608.0      67.000     0.18344    
         TOTAL TIME 5.87520E+06  97920.      1632.0      68.000     0.18617    
1

 SOLVING FOR HEAD 

 OUTPUT CONTROL FOR STRESS PERIOD    2   TIME STEP   68
    PRINT HEAD FOR ALL LAYERS
    SAVE HEAD FOR ALL LAYERS
    PRINT BUDGET
    SAVE BUDGET
1
              HEAD IN LAYER   1 AT END OF TIME STEP  68 IN STRESS PERIOD    2
  ---------------------------------------------------------------------------

            1           2           3           4           5           6           7           8           9          10
 ........................................................................................................................
   1    9.991       8.882       7.773       6.664       5.555       4.446       3.338       2.229       1.120      1.1089E-02
   2    9.991       8.882       7.773       6.664       5.555       4.446       3.338       2.229       1.120      1.1089E-02
   3    9.991       8.882       7.773       6.664       5.555       4.446       3.338       2.229       1.120      1.1089E-02
   4    9.991       8.882       7.773       6.664       5.555       4.446       3.338       2.229       1.120      1.1089E-02
   5    9.991       8.882       7.773       6.664       5.555       4.446       3.338       2.229       1.120      1.1089E-02
   6    9.991       8.882       7.773       6.664       5.555       4.446       3.338       2.229       1.120      1.1089E-02
   7    9.991       8.882       7.773       6.664       5.555       4.446       3.338       2.229       1.120      1.1089E-02
   8    9.991       8.882       7.773       6.664       5.555       4.446       3.338       2.229       1.120      1.1089E-02
   9    9.991       8.882       7.773       6.664       5.555       4.446       3.338       2.229       1.120      1.1089E-02
  10    9.991       8.882       7.773       6.664       5.555       4.446       3.338       2.229       1.120      1.1089E-02

 HEAD WILL BE SAVED ON UNIT   51 AT END OF TIME STEP   68, STRESS PERIOD    2
1
  VOLUMETRIC BUDGET FOR ENTIRE MODEL AT END OF TIME STEP   68, STRESS PERIOD   2
  ------------------------------------------------------------------------------

     CUMULATIVE VOLUMES      L**3       RATES FOR THIS TIME STEP      L**3/T
     ------------------                 ------------------------

           IN:                                      IN:
           ---                                      ---
             STORAGE =       24995.3750               STORAGE =           0.0000
       CONSTANT HEAD =           0.0000         CONSTANT HEAD =           0.0000
               WELLS =           0.0000                 WELLS =           0.0000
     HEAD DEP BOUNDS =      369566.7500       HEAD DEP BOUNDS =        5544.0171

            TOTAL IN =      394562.1250              TOTAL IN =        5544.0171

          OUT:                                     OUT:
          ----                                     ----
             STORAGE =           0.0000               STORAGE =           0.0000
       CONSTANT HEAD =           0.0000         CONSTANT HEAD =           0.0000
               WELLS =           0.0000                 WELLS =           0.0000
     HEAD DEP BOUNDS =      394576.9062       HEAD DEP BOUNDS =        5544.2617

           TOTAL OUT =      394576.9062             TOTAL OUT =        5544.2617

            IN - OUT =         -14.7812              IN - OUT =          -0.2446

 PERCENT DISCREPANCY =          -0.00     PERCENT DISCREPANCY =          -0.00






         TIME SUMMARY AT END OF TIME STEP   68 IN STRESS PERIOD    2
                    SECONDS     MINUTES      HOURS       DAYS        YEARS
                    -----------------------------------------------------------
   TIME STEP LENGTH  86400.      1440.0      24.000      1.0000     2.73785E-03
 STRESS PERIOD TIME 5.87520E+06  97920.      1632.0      68.000     0.18617    
         TOTAL TIME 5.96160E+06  99360.      1656.0      69.000     0.18891    
1

 SOLVING FOR HEAD 

 OUTPUT CONTROL FOR STRESS PERIOD    2   TIME STEP   69
    PRINT HEAD FOR ALL LAYERS
    SAVE HEAD FOR ALL LAYERS
    PRINT BUDGET
    SAVE BUDGET
1
              HEAD IN LAYER   1 AT END OF TIME STEP  69 IN STRESS PERIOD    2
  ---------------------------------------------------------------------------

            1           2           3           4           5           6           7           8           9          10
 ........................................................................................................................
   1    9.991       8.882       7.773       6.664       5.555       4.446       3.338       2.229       1.120      1.1089E-02
   2    9.991       8.882       7.773       6.664       5.555       4.446       3.338       2.229       1.120      1.1089E-02
   3    9.991       8.882       7.773       6.664       5.555       4.446       3.338       2.229       1.120      1.1089E-02
   4    9.991       8.882       7.773       6.664       5.555       4.446       3.338       2.229       1.120      1.1089E-02
   5    9.991       8.882       7.773       6.664       5.555       4.446       3.338       2.229       1.120      1.1089E-02
   6    9.991       8.882       7.773       6.664       5.555       4.446       3.338       2.229       1.120      1.1089E-02
   7    9.991       8.882       7.773       6.664       5.555       4.446       3.338       2.229       1.120      1.1089E-02
   8    9.991       8.882       7.773       6.664       5.555       4.446       3.338       2.229       1.120      1.1089E-02
   9    9.991       8.882       7.773       6.664       5.555       4.446       3.338       2.229       1.120      1.1089E-02
  10    9.991       8.882       7.773       6.664       5.555       4.446       3.338       2.229       1.120      1.1089E-02

 HEAD WILL BE SAVED ON UNIT   51 AT END OF TIME STEP   69, STRESS PERIOD    2
1
  VOLUMETRIC BUDGET FOR ENTIRE MODEL AT END OF TIME STEP   69, STRESS PERIOD   2
  ------------------------------------------------------------------------------

     CUMULATIVE VOLUMES      L**3       RATES FOR THIS TIME STEP      L**3/T
     ------------------                 ------------------------

           IN:                                      IN:
           ---                                      ---
             STORAGE =       24995.3750               STORAGE =           0.0000
       CONSTANT HEAD =           0.0000         CONSTANT HEAD =           0.0000
               WELLS =           0.0000                 WELLS =           0.0000
     HEAD DEP BOUNDS =      375110.7812       HEAD DEP BOUNDS =        5544.0171

            TOTAL IN =      400106.1562              TOTAL IN =        5544.0171

          OUT:                                     OUT:
          ----                                     ----
             STORAGE =           0.0000               STORAGE =           0.0000
       CONSTANT HEAD =           0.0000         CONSTANT HEAD =           0.0000
               WELLS =           0.0000                 WELLS =           0.0000
     HEAD DEP BOUNDS =      400121.1562       HEAD DEP BOUNDS =        5544.2617

           TOTAL OUT =      400121.1562             TOTAL OUT =        5544.2617

            IN - OUT =         -15.0000              IN - OUT =          -0.2446

 PERCENT DISCREPANCY =          -0.00     PERCENT DISCREPANCY =          -0.00






         TIME SUMMARY AT END OF TIME STEP   69 IN STRESS PERIOD    2
                    SECONDS     MINUTES      HOURS       DAYS        YEARS
                    -----------------------------------------------------------
   TIME STEP LENGTH  86400.      1440.0      24.000      1.0000     2.73785E-03
 STRESS PERIOD TIME 5.96160E+06  99360.      1656.0      69.000     0.18891    
         TOTAL TIME 6.04800E+06 1.00800E+05  1680.0      70.000     0.19165    
1

 SOLVING FOR HEAD 

 OUTPUT CONTROL FOR STRESS PERIOD    2   TIME STEP   70
    PRINT HEAD FOR ALL LAYERS
    SAVE HEAD FOR ALL LAYERS
    PRINT BUDGET
    SAVE BUDGET
1
              HEAD IN LAYER   1 AT END OF TIME STEP  70 IN STRESS PERIOD    2
  ---------------------------------------------------------------------------

            1           2           3           4           5           6           7           8           9          10
 ........................................................................................................................
   1    9.991       8.882       7.773       6.664       5.555       4.446       3.338       2.229       1.120      1.1089E-02
   2    9.991       8.882       7.773       6.664       5.555       4.446       3.338       2.229       1.120      1.1089E-02
   3    9.991       8.882       7.773       6.664       5.555       4.446       3.338       2.229       1.120      1.1089E-02
   4    9.991       8.882       7.773       6.664       5.555       4.446       3.338       2.229       1.120      1.1089E-02
   5    9.991       8.882       7.773       6.664       5.555       4.446       3.338       2.229       1.120      1.1089E-02
   6    9.991       8.882       7.773       6.664       5.555       4.446       3.338       2.229       1.120      1.1089E-02
   7    9.991       8.882       7.773       6.664       5.555       4.446       3.338       2.229       1.120      1.1089E-02
   8    9.991       8.882       7.773       6.664       5.555       4.446       3.338       2.229       1.120      1.1089E-02
   9    9.991       8.882       7.773       6.664       5.555       4.446       3.338       2.229       1.120      1.1089E-02
  10    9.991       8.882       7.773       6.664       5.555       4.446       3.338       2.229       1.120      1.1089E-02

 HEAD WILL BE SAVED ON UNIT   51 AT END OF TIME STEP   70, STRESS PERIOD    2
1
  VOLUMETRIC BUDGET FOR ENTIRE MODEL AT END OF TIME STEP   70, STRESS PERIOD   2
  ------------------------------------------------------------------------------

     CUMULATIVE VOLUMES      L**3       RATES FOR THIS TIME STEP      L**3/T
     ------------------                 ------------------------

           IN:                                      IN:
           ---                                      ---
             STORAGE =       24995.3750               STORAGE =           0.0000
       CONSTANT HEAD =           0.0000         CONSTANT HEAD =           0.0000
               WELLS =           0.0000                 WELLS =           0.0000
     HEAD DEP BOUNDS =      380654.8125       HEAD DEP BOUNDS =        5544.0171

            TOTAL IN =      405650.1875              TOTAL IN =        5544.0171

          OUT:                                     OUT:
          ----                                     ----
             STORAGE =           0.0000               STORAGE =           0.0000
       CONSTANT HEAD =           0.0000         CONSTANT HEAD =           0.0000
               WELLS =           0.0000                 WELLS =           0.0000
     HEAD DEP BOUNDS =      405665.4062       HEAD DEP BOUNDS =        5544.2617

           TOTAL OUT =      405665.4062             TOTAL OUT =        5544.2617

            IN - OUT =         -15.2188              IN - OUT =          -0.2446

 PERCENT DISCREPANCY =          -0.00     PERCENT DISCREPANCY =          -0.00






         TIME SUMMARY AT END OF TIME STEP   70 IN STRESS PERIOD    2
                    SECONDS     MINUTES      HOURS       DAYS        YEARS
                    -----------------------------------------------------------
   TIME STEP LENGTH  86400.      1440.0      24.000      1.0000     2.73785E-03
 STRESS PERIOD TIME 6.04800E+06 1.00800E+05  1680.0      70.000     0.19165    
         TOTAL TIME 6.13440E+06 1.02240E+05  1704.0      71.000     0.19439    
1

 SOLVING FOR HEAD 

 OUTPUT CONTROL FOR STRESS PERIOD    2   TIME STEP   71
    PRINT HEAD FOR ALL LAYERS
    SAVE HEAD FOR ALL LAYERS
    PRINT BUDGET
    SAVE BUDGET
1
              HEAD IN LAYER   1 AT END OF TIME STEP  71 IN STRESS PERIOD    2
  ---------------------------------------------------------------------------

            1           2           3           4           5           6           7           8           9          10
 ........................................................................................................................
   1    9.991       8.882       7.773       6.664       5.555       4.446       3.338       2.229       1.120      1.1089E-02
   2    9.991       8.882       7.773       6.664       5.555       4.446       3.338       2.229       1.120      1.1089E-02
   3    9.991       8.882       7.773       6.664       5.555       4.446       3.338       2.229       1.120      1.1089E-02
   4    9.991       8.882       7.773       6.664       5.555       4.446       3.338       2.229       1.120      1.1089E-02
   5    9.991       8.882       7.773       6.664       5.555       4.446       3.338       2.229       1.120      1.1089E-02
   6    9.991       8.882       7.773       6.664       5.555       4.446       3.338       2.229       1.120      1.1089E-02
   7    9.991       8.882       7.773       6.664       5.555       4.446       3.338       2.229       1.120      1.1089E-02
   8    9.991       8.882       7.773       6.664       5.555       4.446       3.338       2.229       1.120      1.1089E-02
   9    9.991       8.882       7.773       6.664       5.555       4.446       3.338       2.229       1.120      1.1089E-02
  10    9.991       8.882       7.773       6.664       5.555       4.446       3.338       2.229       1.120      1.1089E-02

 HEAD WILL BE SAVED ON UNIT   51 AT END OF TIME STEP   71, STRESS PERIOD    2
1
  VOLUMETRIC BUDGET FOR ENTIRE MODEL AT END OF TIME STEP   71, STRESS PERIOD   2
  ------------------------------------------------------------------------------

     CUMULATIVE VOLUMES      L**3       RATES FOR THIS TIME STEP      L**3/T
     ------------------                 ------------------------

           IN:                                      IN:
           ---                                      ---
             STORAGE =       24995.3750               STORAGE =           0.0000
       CONSTANT HEAD =           0.0000         CONSTANT HEAD =           0.0000
               WELLS =           0.0000                 WELLS =           0.0000
     HEAD DEP BOUNDS =      386198.8438       HEAD DEP BOUNDS =        5544.0171

            TOTAL IN =      411194.2188              TOTAL IN =        5544.0171

          OUT:                                     OUT:
          ----                                     ----
             STORAGE =           0.0000               STORAGE =           0.0000
       CONSTANT HEAD =           0.0000         CONSTANT HEAD =           0.0000
               WELLS =           0.0000                 WELLS =           0.0000
     HEAD DEP BOUNDS =      411209.6562       HEAD DEP BOUNDS =        5544.2617

           TOTAL OUT =      411209.6562             TOTAL OUT =        5544.2617

            IN - OUT =         -15.4375              IN - OUT =          -0.2446

 PERCENT DISCREPANCY =          -0.00     PERCENT DISCREPANCY =          -0.00






         TIME SUMMARY AT END OF TIME STEP   71 IN STRESS PERIOD    2
                    SECONDS     MINUTES      HOURS       DAYS        YEARS
                    -----------------------------------------------------------
   TIME STEP LENGTH  86400.      1440.0      24.000      1.0000     2.73785E-03
 STRESS PERIOD TIME 6.13440E+06 1.02240E+05  1704.0      71.000     0.19439    
         TOTAL TIME 6.22080E+06 1.03680E+05  1728.0      72.000     0.19713    
1

 SOLVING FOR HEAD 

 OUTPUT CONTROL FOR STRESS PERIOD    2   TIME STEP   72
    PRINT HEAD FOR ALL LAYERS
    SAVE HEAD FOR ALL LAYERS
    PRINT BUDGET
    SAVE BUDGET
1
              HEAD IN LAYER   1 AT END OF TIME STEP  72 IN STRESS PERIOD    2
  ---------------------------------------------------------------------------

            1           2           3           4           5           6           7           8           9          10
 ........................................................................................................................
   1    9.991       8.882       7.773       6.664       5.555       4.446       3.338       2.229       1.120      1.1089E-02
   2    9.991       8.882       7.773       6.664       5.555       4.446       3.338       2.229       1.120      1.1089E-02
   3    9.991       8.882       7.773       6.664       5.555       4.446       3.338       2.229       1.120      1.1089E-02
   4    9.991       8.882       7.773       6.664       5.555       4.446       3.338       2.229       1.120      1.1089E-02
   5    9.991       8.882       7.773       6.664       5.555       4.446       3.338       2.229       1.120      1.1089E-02
   6    9.991       8.882       7.773       6.664       5.555       4.446       3.338       2.229       1.120      1.1089E-02
   7    9.991       8.882       7.773       6.664       5.555       4.446       3.338       2.229       1.120      1.1089E-02
   8    9.991       8.882       7.773       6.664       5.555       4.446       3.338       2.229       1.120      1.1089E-02
   9    9.991       8.882       7.773       6.664       5.555       4.446       3.338       2.229       1.120      1.1089E-02
  10    9.991       8.882       7.773       6.664       5.555       4.446       3.338       2.229       1.120      1.1089E-02

 HEAD WILL BE SAVED ON UNIT   51 AT END OF TIME STEP   72, STRESS PERIOD    2
1
  VOLUMETRIC BUDGET FOR ENTIRE MODEL AT END OF TIME STEP   72, STRESS PERIOD   2
  ------------------------------------------------------------------------------

     CUMULATIVE VOLUMES      L**3       RATES FOR THIS TIME STEP      L**3/T
     ------------------                 ------------------------

           IN:                                      IN:
           ---                                      ---
             STORAGE =       24995.3750               STORAGE =           0.0000
       CONSTANT HEAD =           0.0000         CONSTANT HEAD =           0.0000
               WELLS =           0.0000                 WELLS =           0.0000
     HEAD DEP BOUNDS =      391742.8750       HEAD DEP BOUNDS =        5544.0171

            TOTAL IN =      416738.2500              TOTAL IN =        5544.0171

          OUT:                                     OUT:
          ----                                     ----
             STORAGE =           0.0000               STORAGE =           0.0000
       CONSTANT HEAD =           0.0000         CONSTANT HEAD =           0.0000
               WELLS =           0.0000                 WELLS =           0.0000
     HEAD DEP BOUNDS =      416753.9062       HEAD DEP BOUNDS =        5544.2617

           TOTAL OUT =      416753.9062             TOTAL OUT =        5544.2617

            IN - OUT =         -15.6562              IN - OUT =          -0.2446

 PERCENT DISCREPANCY =          -0.00     PERCENT DISCREPANCY =          -0.00






         TIME SUMMARY AT END OF TIME STEP   72 IN STRESS PERIOD    2
                    SECONDS     MINUTES      HOURS       DAYS        YEARS
                    -----------------------------------------------------------
   TIME STEP LENGTH  86400.      1440.0      24.000      1.0000     2.73785E-03
 STRESS PERIOD TIME 6.22080E+06 1.03680E+05  1728.0      72.000     0.19713    
         TOTAL TIME 6.30720E+06 1.05120E+05  1752.0      73.000     0.19986    
1

 SOLVING FOR HEAD 

 OUTPUT CONTROL FOR STRESS PERIOD    2   TIME STEP   73
    PRINT HEAD FOR ALL LAYERS
    SAVE HEAD FOR ALL LAYERS
    PRINT BUDGET
    SAVE BUDGET
1
              HEAD IN LAYER   1 AT END OF TIME STEP  73 IN STRESS PERIOD    2
  ---------------------------------------------------------------------------

            1           2           3           4           5           6           7           8           9          10
 ........................................................................................................................
   1    9.991       8.882       7.773       6.664       5.555       4.446       3.338       2.229       1.120      1.1089E-02
   2    9.991       8.882       7.773       6.664       5.555       4.446       3.338       2.229       1.120      1.1089E-02
   3    9.991       8.882       7.773       6.664       5.555       4.446       3.338       2.229       1.120      1.1089E-02
   4    9.991       8.882       7.773       6.664       5.555       4.446       3.338       2.229       1.120      1.1089E-02
   5    9.991       8.882       7.773       6.664       5.555       4.446       3.338       2.229       1.120      1.1089E-02
   6    9.991       8.882       7.773       6.664       5.555       4.446       3.338       2.229       1.120      1.1089E-02
   7    9.991       8.882       7.773       6.664       5.555       4.446       3.338       2.229       1.120      1.1089E-02
   8    9.991       8.882       7.773       6.664       5.555       4.446       3.338       2.229       1.120      1.1089E-02
   9    9.991       8.882       7.773       6.664       5.555       4.446       3.338       2.229       1.120      1.1089E-02
  10    9.991       8.882       7.773       6.664       5.555       4.446       3.338       2.229       1.120      1.1089E-02

 HEAD WILL BE SAVED ON UNIT   51 AT END OF TIME STEP   73, STRESS PERIOD    2
1
  VOLUMETRIC BUDGET FOR ENTIRE MODEL AT END OF TIME STEP   73, STRESS PERIOD   2
  ------------------------------------------------------------------------------

     CUMULATIVE VOLUMES      L**3       RATES FOR THIS TIME STEP      L**3/T
     ------------------                 ------------------------

           IN:                                      IN:
           ---                                      ---
             STORAGE =       24995.3750               STORAGE =           0.0000
       CONSTANT HEAD =           0.0000         CONSTANT HEAD =           0.0000
               WELLS =           0.0000                 WELLS =           0.0000
     HEAD DEP BOUNDS =      397286.9062       HEAD DEP BOUNDS =        5544.0171

            TOTAL IN =      422282.2812              TOTAL IN =        5544.0171

          OUT:                                     OUT:
          ----                                     ----
             STORAGE =           0.0000               STORAGE =           0.0000
       CONSTANT HEAD =           0.0000         CONSTANT HEAD =           0.0000
               WELLS =           0.0000                 WELLS =           0.0000
     HEAD DEP BOUNDS =      422298.1562       HEAD DEP BOUNDS =        5544.2617

           TOTAL OUT =      422298.1562             TOTAL OUT =        5544.2617

            IN - OUT =         -15.8750              IN - OUT =          -0.2446

 PERCENT DISCREPANCY =          -0.00     PERCENT DISCREPANCY =          -0.00






         TIME SUMMARY AT END OF TIME STEP   73 IN STRESS PERIOD    2
                    SECONDS     MINUTES      HOURS       DAYS        YEARS
                    -----------------------------------------------------------
   TIME STEP LENGTH  86400.      1440.0      24.000      1.0000     2.73785E-03
 STRESS PERIOD TIME 6.30720E+06 1.05120E+05  1752.0      73.000     0.19986    
         TOTAL TIME 6.39360E+06 1.06560E+05  1776.0      74.000     0.20260    
1

 SOLVING FOR HEAD 

 OUTPUT CONTROL FOR STRESS PERIOD    2   TIME STEP   74
    PRINT HEAD FOR ALL LAYERS
    SAVE HEAD FOR ALL LAYERS
    PRINT BUDGET
    SAVE BUDGET
1
              HEAD IN LAYER   1 AT END OF TIME STEP  74 IN STRESS PERIOD    2
  ---------------------------------------------------------------------------

            1           2           3           4           5           6           7           8           9          10
 ........................................................................................................................
   1    9.991       8.882       7.773       6.664       5.555       4.446       3.338       2.229       1.120      1.1089E-02
   2    9.991       8.882       7.773       6.664       5.555       4.446       3.338       2.229       1.120      1.1089E-02
   3    9.991       8.882       7.773       6.664       5.555       4.446       3.338       2.229       1.120      1.1089E-02
   4    9.991       8.882       7.773       6.664       5.555       4.446       3.338       2.229       1.120      1.1089E-02
   5    9.991       8.882       7.773       6.664       5.555       4.446       3.338       2.229       1.120      1.1089E-02
   6    9.991       8.882       7.773       6.664       5.555       4.446       3.338       2.229       1.120      1.1089E-02
   7    9.991       8.882       7.773       6.664       5.555       4.446       3.338       2.229       1.120      1.1089E-02
   8    9.991       8.882       7.773       6.664       5.555       4.446       3.338       2.229       1.120      1.1089E-02
   9    9.991       8.882       7.773       6.664       5.555       4.446       3.338       2.229       1.120      1.1089E-02
  10    9.991       8.882       7.773       6.664       5.555       4.446       3.338       2.229       1.120      1.1089E-02

 HEAD WILL BE SAVED ON UNIT   51 AT END OF TIME STEP   74, STRESS PERIOD    2
1
  VOLUMETRIC BUDGET FOR ENTIRE MODEL AT END OF TIME STEP   74, STRESS PERIOD   2
  ------------------------------------------------------------------------------

     CUMULATIVE VOLUMES      L**3       RATES FOR THIS TIME STEP      L**3/T
     ------------------                 ------------------------

           IN:                                      IN:
           ---                                      ---
             STORAGE =       24995.3750               STORAGE =           0.0000
       CONSTANT HEAD =           0.0000         CONSTANT HEAD =           0.0000
               WELLS =           0.0000                 WELLS =           0.0000
     HEAD DEP BOUNDS =      402830.9375       HEAD DEP BOUNDS =        5544.0171

            TOTAL IN =      427826.3125              TOTAL IN =        5544.0171

          OUT:                                     OUT:
          ----                                     ----
             STORAGE =           0.0000               STORAGE =           0.0000
       CONSTANT HEAD =           0.0000         CONSTANT HEAD =           0.0000
               WELLS =           0.0000                 WELLS =           0.0000
     HEAD DEP BOUNDS =      427842.4062       HEAD DEP BOUNDS =        5544.2617

           TOTAL OUT =      427842.4062             TOTAL OUT =        5544.2617

            IN - OUT =         -16.0938              IN - OUT =          -0.2446

 PERCENT DISCREPANCY =          -0.00     PERCENT DISCREPANCY =          -0.00






         TIME SUMMARY AT END OF TIME STEP   74 IN STRESS PERIOD    2
                    SECONDS     MINUTES      HOURS       DAYS        YEARS
                    -----------------------------------------------------------
   TIME STEP LENGTH  86400.      1440.0      24.000      1.0000     2.73785E-03
 STRESS PERIOD TIME 6.39360E+06 1.06560E+05  1776.0      74.000     0.20260    
         TOTAL TIME 6.48000E+06 1.08000E+05  1800.0      75.000     0.20534    
1

 SOLVING FOR HEAD 

 OUTPUT CONTROL FOR STRESS PERIOD    2   TIME STEP   75
    PRINT HEAD FOR ALL LAYERS
    SAVE HEAD FOR ALL LAYERS
    PRINT BUDGET
    SAVE BUDGET
1
              HEAD IN LAYER   1 AT END OF TIME STEP  75 IN STRESS PERIOD    2
  ---------------------------------------------------------------------------

            1           2           3           4           5           6           7           8           9          10
 ........................................................................................................................
   1    9.991       8.882       7.773       6.664       5.555       4.446       3.338       2.229       1.120      1.1089E-02
   2    9.991       8.882       7.773       6.664       5.555       4.446       3.338       2.229       1.120      1.1089E-02
   3    9.991       8.882       7.773       6.664       5.555       4.446       3.338       2.229       1.120      1.1089E-02
   4    9.991       8.882       7.773       6.664       5.555       4.446       3.338       2.229       1.120      1.1089E-02
   5    9.991       8.882       7.773       6.664       5.555       4.446       3.338       2.229       1.120      1.1089E-02
   6    9.991       8.882       7.773       6.664       5.555       4.446       3.338       2.229       1.120      1.1089E-02
   7    9.991       8.882       7.773       6.664       5.555       4.446       3.338       2.229       1.120      1.1089E-02
   8    9.991       8.882       7.773       6.664       5.555       4.446       3.338       2.229       1.120      1.1089E-02
   9    9.991       8.882       7.773       6.664       5.555       4.446       3.338       2.229       1.120      1.1089E-02
  10    9.991       8.882       7.773       6.664       5.555       4.446       3.338       2.229       1.120      1.1089E-02

 HEAD WILL BE SAVED ON UNIT   51 AT END OF TIME STEP   75, STRESS PERIOD    2
1
  VOLUMETRIC BUDGET FOR ENTIRE MODEL AT END OF TIME STEP   75, STRESS PERIOD   2
  ------------------------------------------------------------------------------

     CUMULATIVE VOLUMES      L**3       RATES FOR THIS TIME STEP      L**3/T
     ------------------                 ------------------------

           IN:                                      IN:
           ---                                      ---
             STORAGE =       24995.3750               STORAGE =           0.0000
       CONSTANT HEAD =           0.0000         CONSTANT HEAD =           0.0000
               WELLS =           0.0000                 WELLS =           0.0000
     HEAD DEP BOUNDS =      408374.9688       HEAD DEP BOUNDS =        5544.0171

            TOTAL IN =      433370.3438              TOTAL IN =        5544.0171

          OUT:                                     OUT:
          ----                                     ----
             STORAGE =           0.0000               STORAGE =           0.0000
       CONSTANT HEAD =           0.0000         CONSTANT HEAD =           0.0000
               WELLS =           0.0000                 WELLS =           0.0000
     HEAD DEP BOUNDS =      433386.6562       HEAD DEP BOUNDS =        5544.2617

           TOTAL OUT =      433386.6562             TOTAL OUT =        5544.2617

            IN - OUT =         -16.3125              IN - OUT =          -0.2446

 PERCENT DISCREPANCY =          -0.00     PERCENT DISCREPANCY =          -0.00






         TIME SUMMARY AT END OF TIME STEP   75 IN STRESS PERIOD    2
                    SECONDS     MINUTES      HOURS       DAYS        YEARS
                    -----------------------------------------------------------
   TIME STEP LENGTH  86400.      1440.0      24.000      1.0000     2.73785E-03
 STRESS PERIOD TIME 6.48000E+06 1.08000E+05  1800.0      75.000     0.20534    
         TOTAL TIME 6.56640E+06 1.09440E+05  1824.0      76.000     0.20808    
1

 SOLVING FOR HEAD 

 OUTPUT CONTROL FOR STRESS PERIOD    2   TIME STEP   76
    PRINT HEAD FOR ALL LAYERS
    SAVE HEAD FOR ALL LAYERS
    PRINT BUDGET
    SAVE BUDGET
1
              HEAD IN LAYER   1 AT END OF TIME STEP  76 IN STRESS PERIOD    2
  ---------------------------------------------------------------------------

            1           2           3           4           5           6           7           8           9          10
 ........................................................................................................................
   1    9.991       8.882       7.773       6.664       5.555       4.446       3.338       2.229       1.120      1.1089E-02
   2    9.991       8.882       7.773       6.664       5.555       4.446       3.338       2.229       1.120      1.1089E-02
   3    9.991       8.882       7.773       6.664       5.555       4.446       3.338       2.229       1.120      1.1089E-02
   4    9.991       8.882       7.773       6.664       5.555       4.446       3.338       2.229       1.120      1.1089E-02
   5    9.991       8.882       7.773       6.664       5.555       4.446       3.338       2.229       1.120      1.1089E-02
   6    9.991       8.882       7.773       6.664       5.555       4.446       3.338       2.229       1.120      1.1089E-02
   7    9.991       8.882       7.773       6.664       5.555       4.446       3.338       2.229       1.120      1.1089E-02
   8    9.991       8.882       7.773       6.664       5.555       4.446       3.338       2.229       1.120      1.1089E-02
   9    9.991       8.882       7.773       6.664       5.555       4.446       3.338       2.229       1.120      1.1089E-02
  10    9.991       8.882       7.773       6.664       5.555       4.446       3.338       2.229       1.120      1.1089E-02

 HEAD WILL BE SAVED ON UNIT   51 AT END OF TIME STEP   76, STRESS PERIOD    2
1
  VOLUMETRIC BUDGET FOR ENTIRE MODEL AT END OF TIME STEP   76, STRESS PERIOD   2
  ------------------------------------------------------------------------------

     CUMULATIVE VOLUMES      L**3       RATES FOR THIS TIME STEP      L**3/T
     ------------------                 ------------------------

           IN:                                      IN:
           ---                                      ---
             STORAGE =       24995.3750               STORAGE =           0.0000
       CONSTANT HEAD =           0.0000         CONSTANT HEAD =           0.0000
               WELLS =           0.0000                 WELLS =           0.0000
     HEAD DEP BOUNDS =      413919.0000       HEAD DEP BOUNDS =        5544.0171

            TOTAL IN =      438914.3750              TOTAL IN =        5544.0171

          OUT:                                     OUT:
          ----                                     ----
             STORAGE =           0.0000               STORAGE =           0.0000
       CONSTANT HEAD =           0.0000         CONSTANT HEAD =           0.0000
               WELLS =           0.0000                 WELLS =           0.0000
     HEAD DEP BOUNDS =      438930.9062       HEAD DEP BOUNDS =        5544.2617

           TOTAL OUT =      438930.9062             TOTAL OUT =        5544.2617

            IN - OUT =         -16.5312              IN - OUT =          -0.2446

 PERCENT DISCREPANCY =          -0.00     PERCENT DISCREPANCY =          -0.00






         TIME SUMMARY AT END OF TIME STEP   76 IN STRESS PERIOD    2
                    SECONDS     MINUTES      HOURS       DAYS        YEARS
                    -----------------------------------------------------------
   TIME STEP LENGTH  86400.      1440.0      24.000      1.0000     2.73785E-03
 STRESS PERIOD TIME 6.56640E+06 1.09440E+05  1824.0      76.000     0.20808    
         TOTAL TIME 6.65280E+06 1.10880E+05  1848.0      77.000     0.21081    
1

 SOLVING FOR HEAD 

 OUTPUT CONTROL FOR STRESS PERIOD    2   TIME STEP   77
    PRINT HEAD FOR ALL LAYERS
    SAVE HEAD FOR ALL LAYERS
    PRINT BUDGET
    SAVE BUDGET
1
              HEAD IN LAYER   1 AT END OF TIME STEP  77 IN STRESS PERIOD    2
  ---------------------------------------------------------------------------

            1           2           3           4           5           6           7           8           9          10
 ........................................................................................................................
   1    9.991       8.882       7.773       6.664       5.555       4.446       3.338       2.229       1.120      1.1089E-02
   2    9.991       8.882       7.773       6.664       5.555       4.446       3.338       2.229       1.120      1.1089E-02
   3    9.991       8.882       7.773       6.664       5.555       4.446       3.338       2.229       1.120      1.1089E-02
   4    9.991       8.882       7.773       6.664       5.555       4.446       3.338       2.229       1.120      1.1089E-02
   5    9.991       8.882       7.773       6.664       5.555       4.446       3.338       2.229       1.120      1.1089E-02
   6    9.991       8.882       7.773       6.664       5.555       4.446       3.338       2.229       1.120      1.1089E-02
   7    9.991       8.882       7.773       6.664       5.555       4.446       3.338       2.229       1.120      1.1089E-02
   8    9.991       8.882       7.773       6.664       5.555       4.446       3.338       2.229       1.120      1.1089E-02
   9    9.991       8.882       7.773       6.664       5.555       4.446       3.338       2.229       1.120      1.1089E-02
  10    9.991       8.882       7.773       6.664       5.555       4.446       3.338       2.229       1.120      1.1089E-02

 HEAD WILL BE SAVED ON UNIT   51 AT END OF TIME STEP   77, STRESS PERIOD    2
1
  VOLUMETRIC BUDGET FOR ENTIRE MODEL AT END OF TIME STEP   77, STRESS PERIOD   2
  ------------------------------------------------------------------------------

     CUMULATIVE VOLUMES      L**3       RATES FOR THIS TIME STEP      L**3/T
     ------------------                 ------------------------

           IN:                                      IN:
           ---                                      ---
             STORAGE =       24995.3750               STORAGE =           0.0000
       CONSTANT HEAD =           0.0000         CONSTANT HEAD =           0.0000
               WELLS =           0.0000                 WELLS =           0.0000
     HEAD DEP BOUNDS =      419463.0312       HEAD DEP BOUNDS =        5544.0171

            TOTAL IN =      444458.4062              TOTAL IN =        5544.0171

          OUT:                                     OUT:
          ----                                     ----
             STORAGE =           0.0000               STORAGE =           0.0000
       CONSTANT HEAD =           0.0000         CONSTANT HEAD =           0.0000
               WELLS =           0.0000                 WELLS =           0.0000
     HEAD DEP BOUNDS =      444475.1562       HEAD DEP BOUNDS =        5544.2617

           TOTAL OUT =      444475.1562             TOTAL OUT =        5544.2617

            IN - OUT =         -16.7500              IN - OUT =          -0.2446

 PERCENT DISCREPANCY =          -0.00     PERCENT DISCREPANCY =          -0.00






         TIME SUMMARY AT END OF TIME STEP   77 IN STRESS PERIOD    2
                    SECONDS     MINUTES      HOURS       DAYS        YEARS
                    -----------------------------------------------------------
   TIME STEP LENGTH  86400.      1440.0      24.000      1.0000     2.73785E-03
 STRESS PERIOD TIME 6.65280E+06 1.10880E+05  1848.0      77.000     0.21081    
         TOTAL TIME 6.73920E+06 1.12320E+05  1872.0      78.000     0.21355    
1

 SOLVING FOR HEAD 

 OUTPUT CONTROL FOR STRESS PERIOD    2   TIME STEP   78
    PRINT HEAD FOR ALL LAYERS
    SAVE HEAD FOR ALL LAYERS
    PRINT BUDGET
    SAVE BUDGET
1
              HEAD IN LAYER   1 AT END OF TIME STEP  78 IN STRESS PERIOD    2
  ---------------------------------------------------------------------------

            1           2           3           4           5           6           7           8           9          10
 ........................................................................................................................
   1    9.991       8.882       7.773       6.664       5.555       4.446       3.338       2.229       1.120      1.1089E-02
   2    9.991       8.882       7.773       6.664       5.555       4.446       3.338       2.229       1.120      1.1089E-02
   3    9.991       8.882       7.773       6.664       5.555       4.446       3.338       2.229       1.120      1.1089E-02
   4    9.991       8.882       7.773       6.664       5.555       4.446       3.338       2.229       1.120      1.1089E-02
   5    9.991       8.882       7.773       6.664       5.555       4.446       3.338       2.229       1.120      1.1089E-02
   6    9.991       8.882       7.773       6.664       5.555       4.446       3.338       2.229       1.120      1.1089E-02
   7    9.991       8.882       7.773       6.664       5.555       4.446       3.338       2.229       1.120      1.1089E-02
   8    9.991       8.882       7.773       6.664       5.555       4.446       3.338       2.229       1.120      1.1089E-02
   9    9.991       8.882       7.773       6.664       5.555       4.446       3.338       2.229       1.120      1.1089E-02
  10    9.991       8.882       7.773       6.664       5.555       4.446       3.338       2.229       1.120      1.1089E-02

 HEAD WILL BE SAVED ON UNIT   51 AT END OF TIME STEP   78, STRESS PERIOD    2
1
  VOLUMETRIC BUDGET FOR ENTIRE MODEL AT END OF TIME STEP   78, STRESS PERIOD   2
  ------------------------------------------------------------------------------

     CUMULATIVE VOLUMES      L**3       RATES FOR THIS TIME STEP      L**3/T
     ------------------                 ------------------------

           IN:                                      IN:
           ---                                      ---
             STORAGE =       24995.3750               STORAGE =           0.0000
       CONSTANT HEAD =           0.0000         CONSTANT HEAD =           0.0000
               WELLS =           0.0000                 WELLS =           0.0000
     HEAD DEP BOUNDS =      425007.0625       HEAD DEP BOUNDS =        5544.0171

            TOTAL IN =      450002.4375              TOTAL IN =        5544.0171

          OUT:                                     OUT:
          ----                                     ----
             STORAGE =           0.0000               STORAGE =           0.0000
       CONSTANT HEAD =           0.0000         CONSTANT HEAD =           0.0000
               WELLS =           0.0000                 WELLS =           0.0000
     HEAD DEP BOUNDS =      450019.4062       HEAD DEP BOUNDS =        5544.2617

           TOTAL OUT =      450019.4062             TOTAL OUT =        5544.2617

            IN - OUT =         -16.9688              IN - OUT =          -0.2446

 PERCENT DISCREPANCY =          -0.00     PERCENT DISCREPANCY =          -0.00






         TIME SUMMARY AT END OF TIME STEP   78 IN STRESS PERIOD    2
                    SECONDS     MINUTES      HOURS       DAYS        YEARS
                    -----------------------------------------------------------
   TIME STEP LENGTH  86400.      1440.0      24.000      1.0000     2.73785E-03
 STRESS PERIOD TIME 6.73920E+06 1.12320E+05  1872.0      78.000     0.21355    
         TOTAL TIME 6.82560E+06 1.13760E+05  1896.0      79.000     0.21629    
1

 SOLVING FOR HEAD 

 OUTPUT CONTROL FOR STRESS PERIOD    2   TIME STEP   79
    PRINT HEAD FOR ALL LAYERS
    SAVE HEAD FOR ALL LAYERS
    PRINT BUDGET
    SAVE BUDGET
1
              HEAD IN LAYER   1 AT END OF TIME STEP  79 IN STRESS PERIOD    2
  ---------------------------------------------------------------------------

            1           2           3           4           5           6           7           8           9          10
 ........................................................................................................................
   1    9.991       8.882       7.773       6.664       5.555       4.446       3.338       2.229       1.120      1.1089E-02
   2    9.991       8.882       7.773       6.664       5.555       4.446       3.338       2.229       1.120      1.1089E-02
   3    9.991       8.882       7.773       6.664       5.555       4.446       3.338       2.229       1.120      1.1089E-02
   4    9.991       8.882       7.773       6.664       5.555       4.446       3.338       2.229       1.120      1.1089E-02
   5    9.991       8.882       7.773       6.664       5.555       4.446       3.338       2.229       1.120      1.1089E-02
   6    9.991       8.882       7.773       6.664       5.555       4.446       3.338       2.229       1.120      1.1089E-02
   7    9.991       8.882       7.773       6.664       5.555       4.446       3.338       2.229       1.120      1.1089E-02
   8    9.991       8.882       7.773       6.664       5.555       4.446       3.338       2.229       1.120      1.1089E-02
   9    9.991       8.882       7.773       6.664       5.555       4.446       3.338       2.229       1.120      1.1089E-02
  10    9.991       8.882       7.773       6.664       5.555       4.446       3.338       2.229       1.120      1.1089E-02

 HEAD WILL BE SAVED ON UNIT   51 AT END OF TIME STEP   79, STRESS PERIOD    2
1
  VOLUMETRIC BUDGET FOR ENTIRE MODEL AT END OF TIME STEP   79, STRESS PERIOD   2
  ------------------------------------------------------------------------------

     CUMULATIVE VOLUMES      L**3       RATES FOR THIS TIME STEP      L**3/T
     ------------------                 ------------------------

           IN:                                      IN:
           ---                                      ---
             STORAGE =       24995.3750               STORAGE =           0.0000
       CONSTANT HEAD =           0.0000         CONSTANT HEAD =           0.0000
               WELLS =           0.0000                 WELLS =           0.0000
     HEAD DEP BOUNDS =      430551.0938       HEAD DEP BOUNDS =        5544.0171

            TOTAL IN =      455546.4688              TOTAL IN =        5544.0171

          OUT:                                     OUT:
          ----                                     ----
             STORAGE =           0.0000               STORAGE =           0.0000
       CONSTANT HEAD =           0.0000         CONSTANT HEAD =           0.0000
               WELLS =           0.0000                 WELLS =           0.0000
     HEAD DEP BOUNDS =      455563.6562       HEAD DEP BOUNDS =        5544.2617

           TOTAL OUT =      455563.6562             TOTAL OUT =        5544.2617

            IN - OUT =         -17.1875              IN - OUT =          -0.2446

 PERCENT DISCREPANCY =          -0.00     PERCENT DISCREPANCY =          -0.00






         TIME SUMMARY AT END OF TIME STEP   79 IN STRESS PERIOD    2
                    SECONDS     MINUTES      HOURS       DAYS        YEARS
                    -----------------------------------------------------------
   TIME STEP LENGTH  86400.      1440.0      24.000      1.0000     2.73785E-03
 STRESS PERIOD TIME 6.82560E+06 1.13760E+05  1896.0      79.000     0.21629    
         TOTAL TIME 6.91200E+06 1.15200E+05  1920.0      80.000     0.21903    
1

 SOLVING FOR HEAD 

 OUTPUT CONTROL FOR STRESS PERIOD    2   TIME STEP   80
    PRINT HEAD FOR ALL LAYERS
    SAVE HEAD FOR ALL LAYERS
    PRINT BUDGET
    SAVE BUDGET
1
              HEAD IN LAYER   1 AT END OF TIME STEP  80 IN STRESS PERIOD    2
  ---------------------------------------------------------------------------

            1           2           3           4           5           6           7           8           9          10
 ........................................................................................................................
   1    9.991       8.882       7.773       6.664       5.555       4.446       3.338       2.229       1.120      1.1089E-02
   2    9.991       8.882       7.773       6.664       5.555       4.446       3.338       2.229       1.120      1.1089E-02
   3    9.991       8.882       7.773       6.664       5.555       4.446       3.338       2.229       1.120      1.1089E-02
   4    9.991       8.882       7.773       6.664       5.555       4.446       3.338       2.229       1.120      1.1089E-02
   5    9.991       8.882       7.773       6.664       5.555       4.446       3.338       2.229       1.120      1.1089E-02
   6    9.991       8.882       7.773       6.664       5.555       4.446       3.338       2.229       1.120      1.1089E-02
   7    9.991       8.882       7.773       6.664       5.555       4.446       3.338       2.229       1.120      1.1089E-02
   8    9.991       8.882       7.773       6.664       5.555       4.446       3.338       2.229       1.120      1.1089E-02
   9    9.991       8.882       7.773       6.664       5.555       4.446       3.338       2.229       1.120      1.1089E-02
  10    9.991       8.882       7.773       6.664       5.555       4.446       3.338       2.229       1.120      1.1089E-02

 HEAD WILL BE SAVED ON UNIT   51 AT END OF TIME STEP   80, STRESS PERIOD    2
1
  VOLUMETRIC BUDGET FOR ENTIRE MODEL AT END OF TIME STEP   80, STRESS PERIOD   2
  ------------------------------------------------------------------------------

     CUMULATIVE VOLUMES      L**3       RATES FOR THIS TIME STEP      L**3/T
     ------------------                 ------------------------

           IN:                                      IN:
           ---                                      ---
             STORAGE =       24995.3750               STORAGE =           0.0000
       CONSTANT HEAD =           0.0000         CONSTANT HEAD =           0.0000
               WELLS =           0.0000                 WELLS =           0.0000
     HEAD DEP BOUNDS =      436095.1250       HEAD DEP BOUNDS =        5544.0171

            TOTAL IN =      461090.5000              TOTAL IN =        5544.0171

          OUT:                                     OUT:
          ----                                     ----
             STORAGE =           0.0000               STORAGE =           0.0000
       CONSTANT HEAD =           0.0000         CONSTANT HEAD =           0.0000
               WELLS =           0.0000                 WELLS =           0.0000
     HEAD DEP BOUNDS =      461107.9062       HEAD DEP BOUNDS =        5544.2617

           TOTAL OUT =      461107.9062             TOTAL OUT =        5544.2617

            IN - OUT =         -17.4062              IN - OUT =          -0.2446

 PERCENT DISCREPANCY =          -0.00     PERCENT DISCREPANCY =          -0.00






         TIME SUMMARY AT END OF TIME STEP   80 IN STRESS PERIOD    2
                    SECONDS     MINUTES      HOURS       DAYS        YEARS
                    -----------------------------------------------------------
   TIME STEP LENGTH  86400.      1440.0      24.000      1.0000     2.73785E-03
 STRESS PERIOD TIME 6.91200E+06 1.15200E+05  1920.0      80.000     0.21903    
         TOTAL TIME 6.99840E+06 1.16640E+05  1944.0      81.000     0.22177    
1

 SOLVING FOR HEAD 

 OUTPUT CONTROL FOR STRESS PERIOD    2   TIME STEP   81
    PRINT HEAD FOR ALL LAYERS
    SAVE HEAD FOR ALL LAYERS
    PRINT BUDGET
    SAVE BUDGET
1
              HEAD IN LAYER   1 AT END OF TIME STEP  81 IN STRESS PERIOD    2
  ---------------------------------------------------------------------------

            1           2           3           4           5           6           7           8           9          10
 ........................................................................................................................
   1    9.991       8.882       7.773       6.664       5.555       4.446       3.338       2.229       1.120      1.1089E-02
   2    9.991       8.882       7.773       6.664       5.555       4.446       3.338       2.229       1.120      1.1089E-02
   3    9.991       8.882       7.773       6.664       5.555       4.446       3.338       2.229       1.120      1.1089E-02
   4    9.991       8.882       7.773       6.664       5.555       4.446       3.338       2.229       1.120      1.1089E-02
   5    9.991       8.882       7.773       6.664       5.555       4.446       3.338       2.229       1.120      1.1089E-02
   6    9.991       8.882       7.773       6.664       5.555       4.446       3.338       2.229       1.120      1.1089E-02
   7    9.991       8.882       7.773       6.664       5.555       4.446       3.338       2.229       1.120      1.1089E-02
   8    9.991       8.882       7.773       6.664       5.555       4.446       3.338       2.229       1.120      1.1089E-02
   9    9.991       8.882       7.773       6.664       5.555       4.446       3.338       2.229       1.120      1.1089E-02
  10    9.991       8.882       7.773       6.664       5.555       4.446       3.338       2.229       1.120      1.1089E-02

 HEAD WILL BE SAVED ON UNIT   51 AT END OF TIME STEP   81, STRESS PERIOD    2
1
  VOLUMETRIC BUDGET FOR ENTIRE MODEL AT END OF TIME STEP   81, STRESS PERIOD   2
  ------------------------------------------------------------------------------

     CUMULATIVE VOLUMES      L**3       RATES FOR THIS TIME STEP      L**3/T
     ------------------                 ------------------------

           IN:                                      IN:
           ---                                      ---
             STORAGE =       24995.3750               STORAGE =           0.0000
       CONSTANT HEAD =           0.0000         CONSTANT HEAD =           0.0000
               WELLS =           0.0000                 WELLS =           0.0000
     HEAD DEP BOUNDS =      441639.1562       HEAD DEP BOUNDS =        5544.0171

            TOTAL IN =      466634.5312              TOTAL IN =        5544.0171

          OUT:                                     OUT:
          ----                                     ----
             STORAGE =           0.0000               STORAGE =           0.0000
       CONSTANT HEAD =           0.0000         CONSTANT HEAD =           0.0000
               WELLS =           0.0000                 WELLS =           0.0000
     HEAD DEP BOUNDS =      466652.1562       HEAD DEP BOUNDS =        5544.2617

           TOTAL OUT =      466652.1562             TOTAL OUT =        5544.2617

            IN - OUT =         -17.6250              IN - OUT =          -0.2446

 PERCENT DISCREPANCY =          -0.00     PERCENT DISCREPANCY =          -0.00






         TIME SUMMARY AT END OF TIME STEP   81 IN STRESS PERIOD    2
                    SECONDS     MINUTES      HOURS       DAYS        YEARS
                    -----------------------------------------------------------
   TIME STEP LENGTH  86400.      1440.0      24.000      1.0000     2.73785E-03
 STRESS PERIOD TIME 6.99840E+06 1.16640E+05  1944.0      81.000     0.22177    
         TOTAL TIME 7.08480E+06 1.18080E+05  1968.0      82.000     0.22450    
1

 SOLVING FOR HEAD 

 OUTPUT CONTROL FOR STRESS PERIOD    2   TIME STEP   82
    PRINT HEAD FOR ALL LAYERS
    SAVE HEAD FOR ALL LAYERS
    PRINT BUDGET
    SAVE BUDGET
1
              HEAD IN LAYER   1 AT END OF TIME STEP  82 IN STRESS PERIOD    2
  ---------------------------------------------------------------------------

            1           2           3           4           5           6           7           8           9          10
 ........................................................................................................................
   1    9.991       8.882       7.773       6.664       5.555       4.446       3.338       2.229       1.120      1.1089E-02
   2    9.991       8.882       7.773       6.664       5.555       4.446       3.338       2.229       1.120      1.1089E-02
   3    9.991       8.882       7.773       6.664       5.555       4.446       3.338       2.229       1.120      1.1089E-02
   4    9.991       8.882       7.773       6.664       5.555       4.446       3.338       2.229       1.120      1.1089E-02
   5    9.991       8.882       7.773       6.664       5.555       4.446       3.338       2.229       1.120      1.1089E-02
   6    9.991       8.882       7.773       6.664       5.555       4.446       3.338       2.229       1.120      1.1089E-02
   7    9.991       8.882       7.773       6.664       5.555       4.446       3.338       2.229       1.120      1.1089E-02
   8    9.991       8.882       7.773       6.664       5.555       4.446       3.338       2.229       1.120      1.1089E-02
   9    9.991       8.882       7.773       6.664       5.555       4.446       3.338       2.229       1.120      1.1089E-02
  10    9.991       8.882       7.773       6.664       5.555       4.446       3.338       2.229       1.120      1.1089E-02

 HEAD WILL BE SAVED ON UNIT   51 AT END OF TIME STEP   82, STRESS PERIOD    2
1
  VOLUMETRIC BUDGET FOR ENTIRE MODEL AT END OF TIME STEP   82, STRESS PERIOD   2
  ------------------------------------------------------------------------------

     CUMULATIVE VOLUMES      L**3       RATES FOR THIS TIME STEP      L**3/T
     ------------------                 ------------------------

           IN:                                      IN:
           ---                                      ---
             STORAGE =       24995.3750               STORAGE =           0.0000
       CONSTANT HEAD =           0.0000         CONSTANT HEAD =           0.0000
               WELLS =           0.0000                 WELLS =           0.0000
     HEAD DEP BOUNDS =      447183.1875       HEAD DEP BOUNDS =        5544.0171

            TOTAL IN =      472178.5625              TOTAL IN =        5544.0171

          OUT:                                     OUT:
          ----                                     ----
             STORAGE =           0.0000               STORAGE =           0.0000
       CONSTANT HEAD =           0.0000         CONSTANT HEAD =           0.0000
               WELLS =           0.0000                 WELLS =           0.0000
     HEAD DEP BOUNDS =      472196.4062       HEAD DEP BOUNDS =        5544.2617

           TOTAL OUT =      472196.4062             TOTAL OUT =        5544.2617

            IN - OUT =         -17.8438              IN - OUT =          -0.2446

 PERCENT DISCREPANCY =          -0.00     PERCENT DISCREPANCY =          -0.00






         TIME SUMMARY AT END OF TIME STEP   82 IN STRESS PERIOD    2
                    SECONDS     MINUTES      HOURS       DAYS        YEARS
                    -----------------------------------------------------------
   TIME STEP LENGTH  86400.      1440.0      24.000      1.0000     2.73785E-03
 STRESS PERIOD TIME 7.08480E+06 1.18080E+05  1968.0      82.000     0.22450    
         TOTAL TIME 7.17120E+06 1.19520E+05  1992.0      83.000     0.22724    
1

 SOLVING FOR HEAD 

 OUTPUT CONTROL FOR STRESS PERIOD    2   TIME STEP   83
    PRINT HEAD FOR ALL LAYERS
    SAVE HEAD FOR ALL LAYERS
    PRINT BUDGET
    SAVE BUDGET
1
              HEAD IN LAYER   1 AT END OF TIME STEP  83 IN STRESS PERIOD    2
  ---------------------------------------------------------------------------

            1           2           3           4           5           6           7           8           9          10
 ........................................................................................................................
   1    9.991       8.882       7.773       6.664       5.555       4.446       3.338       2.229       1.120      1.1089E-02
   2    9.991       8.882       7.773       6.664       5.555       4.446       3.338       2.229       1.120      1.1089E-02
   3    9.991       8.882       7.773       6.664       5.555       4.446       3.338       2.229       1.120      1.1089E-02
   4    9.991       8.882       7.773       6.664       5.555       4.446       3.338       2.229       1.120      1.1089E-02
   5    9.991       8.882       7.773       6.664       5.555       4.446       3.338       2.229       1.120      1.1089E-02
   6    9.991       8.882       7.773       6.664       5.555       4.446       3.338       2.229       1.120      1.1089E-02
   7    9.991       8.882       7.773       6.664       5.555       4.446       3.338       2.229       1.120      1.1089E-02
   8    9.991       8.882       7.773       6.664       5.555       4.446       3.338       2.229       1.120      1.1089E-02
   9    9.991       8.882       7.773       6.664       5.555       4.446       3.338       2.229       1.120      1.1089E-02
  10    9.991       8.882       7.773       6.664       5.555       4.446       3.338       2.229       1.120      1.1089E-02

 HEAD WILL BE SAVED ON UNIT   51 AT END OF TIME STEP   83, STRESS PERIOD    2
1
  VOLUMETRIC BUDGET FOR ENTIRE MODEL AT END OF TIME STEP   83, STRESS PERIOD   2
  ------------------------------------------------------------------------------

     CUMULATIVE VOLUMES      L**3       RATES FOR THIS TIME STEP      L**3/T
     ------------------                 ------------------------

           IN:                                      IN:
           ---                                      ---
             STORAGE =       24995.3750               STORAGE =           0.0000
       CONSTANT HEAD =           0.0000         CONSTANT HEAD =           0.0000
               WELLS =           0.0000                 WELLS =           0.0000
     HEAD DEP BOUNDS =      452727.2188       HEAD DEP BOUNDS =        5544.0171

            TOTAL IN =      477722.5938              TOTAL IN =        5544.0171

          OUT:                                     OUT:
          ----                                     ----
             STORAGE =           0.0000               STORAGE =           0.0000
       CONSTANT HEAD =           0.0000         CONSTANT HEAD =           0.0000
               WELLS =           0.0000                 WELLS =           0.0000
     HEAD DEP BOUNDS =      477740.6562       HEAD DEP BOUNDS =        5544.2617

           TOTAL OUT =      477740.6562             TOTAL OUT =        5544.2617

            IN - OUT =         -18.0625              IN - OUT =          -0.2446

 PERCENT DISCREPANCY =          -0.00     PERCENT DISCREPANCY =          -0.00






         TIME SUMMARY AT END OF TIME STEP   83 IN STRESS PERIOD    2
                    SECONDS     MINUTES      HOURS       DAYS        YEARS
                    -----------------------------------------------------------
   TIME STEP LENGTH  86400.      1440.0      24.000      1.0000     2.73785E-03
 STRESS PERIOD TIME 7.17120E+06 1.19520E+05  1992.0      83.000     0.22724    
         TOTAL TIME 7.25760E+06 1.20960E+05  2016.0      84.000     0.22998    
1

 SOLVING FOR HEAD 

 OUTPUT CONTROL FOR STRESS PERIOD    2   TIME STEP   84
    PRINT HEAD FOR ALL LAYERS
    SAVE HEAD FOR ALL LAYERS
    PRINT BUDGET
    SAVE BUDGET
1
              HEAD IN LAYER   1 AT END OF TIME STEP  84 IN STRESS PERIOD    2
  ---------------------------------------------------------------------------

            1           2           3           4           5           6           7           8           9          10
 ........................................................................................................................
   1    9.991       8.882       7.773       6.664       5.555       4.446       3.338       2.229       1.120      1.1089E-02
   2    9.991       8.882       7.773       6.664       5.555       4.446       3.338       2.229       1.120      1.1089E-02
   3    9.991       8.882       7.773       6.664       5.555       4.446       3.338       2.229       1.120      1.1089E-02
   4    9.991       8.882       7.773       6.664       5.555       4.446       3.338       2.229       1.120      1.1089E-02
   5    9.991       8.882       7.773       6.664       5.555       4.446       3.338       2.229       1.120      1.1089E-02
   6    9.991       8.882       7.773       6.664       5.555       4.446       3.338       2.229       1.120      1.1089E-02
   7    9.991       8.882       7.773       6.664       5.555       4.446       3.338       2.229       1.120      1.1089E-02
   8    9.991       8.882       7.773       6.664       5.555       4.446       3.338       2.229       1.120      1.1089E-02
   9    9.991       8.882       7.773       6.664       5.555       4.446       3.338       2.229       1.120      1.1089E-02
  10    9.991       8.882       7.773       6.664       5.555       4.446       3.338       2.229       1.120      1.1089E-02

 HEAD WILL BE SAVED ON UNIT   51 AT END OF TIME STEP   84, STRESS PERIOD    2
1
  VOLUMETRIC BUDGET FOR ENTIRE MODEL AT END OF TIME STEP   84, STRESS PERIOD   2
  ------------------------------------------------------------------------------

     CUMULATIVE VOLUMES      L**3       RATES FOR THIS TIME STEP      L**3/T
     ------------------                 ------------------------

           IN:                                      IN:
           ---                                      ---
             STORAGE =       24995.3750               STORAGE =           0.0000
       CONSTANT HEAD =           0.0000         CONSTANT HEAD =           0.0000
               WELLS =           0.0000                 WELLS =           0.0000
     HEAD DEP BOUNDS =      458271.2500       HEAD DEP BOUNDS =        5544.0171

            TOTAL IN =      483266.6250              TOTAL IN =        5544.0171

          OUT:                                     OUT:
          ----                                     ----
             STORAGE =           0.0000               STORAGE =           0.0000
       CONSTANT HEAD =           0.0000         CONSTANT HEAD =           0.0000
               WELLS =           0.0000                 WELLS =           0.0000
     HEAD DEP BOUNDS =      483284.9062       HEAD DEP BOUNDS =        5544.2617

           TOTAL OUT =      483284.9062             TOTAL OUT =        5544.2617

            IN - OUT =         -18.2812              IN - OUT =          -0.2446

 PERCENT DISCREPANCY =          -0.00     PERCENT DISCREPANCY =          -0.00






         TIME SUMMARY AT END OF TIME STEP   84 IN STRESS PERIOD    2
                    SECONDS     MINUTES      HOURS       DAYS        YEARS
                    -----------------------------------------------------------
   TIME STEP LENGTH  86400.      1440.0      24.000      1.0000     2.73785E-03
 STRESS PERIOD TIME 7.25760E+06 1.20960E+05  2016.0      84.000     0.22998    
         TOTAL TIME 7.34400E+06 1.22400E+05  2040.0      85.000     0.23272    
1

 SOLVING FOR HEAD 

 OUTPUT CONTROL FOR STRESS PERIOD    2   TIME STEP   85
    PRINT HEAD FOR ALL LAYERS
    SAVE HEAD FOR ALL LAYERS
    PRINT BUDGET
    SAVE BUDGET
1
              HEAD IN LAYER   1 AT END OF TIME STEP  85 IN STRESS PERIOD    2
  ---------------------------------------------------------------------------

            1           2           3           4           5           6           7           8           9          10
 ........................................................................................................................
   1    9.991       8.882       7.773       6.664       5.555       4.446       3.338       2.229       1.120      1.1089E-02
   2    9.991       8.882       7.773       6.664       5.555       4.446       3.338       2.229       1.120      1.1089E-02
   3    9.991       8.882       7.773       6.664       5.555       4.446       3.338       2.229       1.120      1.1089E-02
   4    9.991       8.882       7.773       6.664       5.555       4.446       3.338       2.229       1.120      1.1089E-02
   5    9.991       8.882       7.773       6.664       5.555       4.446       3.338       2.229       1.120      1.1089E-02
   6    9.991       8.882       7.773       6.664       5.555       4.446       3.338       2.229       1.120      1.1089E-02
   7    9.991       8.882       7.773       6.664       5.555       4.446       3.338       2.229       1.120      1.1089E-02
   8    9.991       8.882       7.773       6.664       5.555       4.446       3.338       2.229       1.120      1.1089E-02
   9    9.991       8.882       7.773       6.664       5.555       4.446       3.338       2.229       1.120      1.1089E-02
  10    9.991       8.882       7.773       6.664       5.555       4.446       3.338       2.229       1.120      1.1089E-02

 HEAD WILL BE SAVED ON UNIT   51 AT END OF TIME STEP   85, STRESS PERIOD    2
1
  VOLUMETRIC BUDGET FOR ENTIRE MODEL AT END OF TIME STEP   85, STRESS PERIOD   2
  ------------------------------------------------------------------------------

     CUMULATIVE VOLUMES      L**3       RATES FOR THIS TIME STEP      L**3/T
     ------------------                 ------------------------

           IN:                                      IN:
           ---                                      ---
             STORAGE =       24995.3750               STORAGE =           0.0000
       CONSTANT HEAD =           0.0000         CONSTANT HEAD =           0.0000
               WELLS =           0.0000                 WELLS =           0.0000
     HEAD DEP BOUNDS =      463815.2812       HEAD DEP BOUNDS =        5544.0171

            TOTAL IN =      488810.6562              TOTAL IN =        5544.0171

          OUT:                                     OUT:
          ----                                     ----
             STORAGE =           0.0000               STORAGE =           0.0000
       CONSTANT HEAD =           0.0000         CONSTANT HEAD =           0.0000
               WELLS =           0.0000                 WELLS =           0.0000
     HEAD DEP BOUNDS =      488829.1562       HEAD DEP BOUNDS =        5544.2617

           TOTAL OUT =      488829.1562             TOTAL OUT =        5544.2617

            IN - OUT =         -18.5000              IN - OUT =          -0.2446

 PERCENT DISCREPANCY =          -0.00     PERCENT DISCREPANCY =          -0.00






         TIME SUMMARY AT END OF TIME STEP   85 IN STRESS PERIOD    2
                    SECONDS     MINUTES      HOURS       DAYS        YEARS
                    -----------------------------------------------------------
   TIME STEP LENGTH  86400.      1440.0      24.000      1.0000     2.73785E-03
 STRESS PERIOD TIME 7.34400E+06 1.22400E+05  2040.0      85.000     0.23272    
         TOTAL TIME 7.43040E+06 1.23840E+05  2064.0      86.000     0.23546    
1

 SOLVING FOR HEAD 

 OUTPUT CONTROL FOR STRESS PERIOD    2   TIME STEP   86
    PRINT HEAD FOR ALL LAYERS
    SAVE HEAD FOR ALL LAYERS
    PRINT BUDGET
    SAVE BUDGET
1
              HEAD IN LAYER   1 AT END OF TIME STEP  86 IN STRESS PERIOD    2
  ---------------------------------------------------------------------------

            1           2           3           4           5           6           7           8           9          10
 ........................................................................................................................
   1    9.991       8.882       7.773       6.664       5.555       4.446       3.338       2.229       1.120      1.1089E-02
   2    9.991       8.882       7.773       6.664       5.555       4.446       3.338       2.229       1.120      1.1089E-02
   3    9.991       8.882       7.773       6.664       5.555       4.446       3.338       2.229       1.120      1.1089E-02
   4    9.991       8.882       7.773       6.664       5.555       4.446       3.338       2.229       1.120      1.1089E-02
   5    9.991       8.882       7.773       6.664       5.555       4.446       3.338       2.229       1.120      1.1089E-02
   6    9.991       8.882       7.773       6.664       5.555       4.446       3.338       2.229       1.120      1.1089E-02
   7    9.991       8.882       7.773       6.664       5.555       4.446       3.338       2.229       1.120      1.1089E-02
   8    9.991       8.882       7.773       6.664       5.555       4.446       3.338       2.229       1.120      1.1089E-02
   9    9.991       8.882       7.773       6.664       5.555       4.446       3.338       2.229       1.120      1.1089E-02
  10    9.991       8.882       7.773       6.664       5.555       4.446       3.338       2.229       1.120      1.1089E-02

 HEAD WILL BE SAVED ON UNIT   51 AT END OF TIME STEP   86, STRESS PERIOD    2
1
  VOLUMETRIC BUDGET FOR ENTIRE MODEL AT END OF TIME STEP   86, STRESS PERIOD   2
  ------------------------------------------------------------------------------

     CUMULATIVE VOLUMES      L**3       RATES FOR THIS TIME STEP      L**3/T
     ------------------                 ------------------------

           IN:                                      IN:
           ---                                      ---
             STORAGE =       24995.3750               STORAGE =           0.0000
       CONSTANT HEAD =           0.0000         CONSTANT HEAD =           0.0000
               WELLS =           0.0000                 WELLS =           0.0000
     HEAD DEP BOUNDS =      469359.3125       HEAD DEP BOUNDS =        5544.0171

            TOTAL IN =      494354.6875              TOTAL IN =        5544.0171

          OUT:                                     OUT:
          ----                                     ----
             STORAGE =           0.0000               STORAGE =           0.0000
       CONSTANT HEAD =           0.0000         CONSTANT HEAD =           0.0000
               WELLS =           0.0000                 WELLS =           0.0000
     HEAD DEP BOUNDS =      494373.4062       HEAD DEP BOUNDS =        5544.2617

           TOTAL OUT =      494373.4062             TOTAL OUT =        5544.2617

            IN - OUT =         -18.7188              IN - OUT =          -0.2446

 PERCENT DISCREPANCY =          -0.00     PERCENT DISCREPANCY =          -0.00






         TIME SUMMARY AT END OF TIME STEP   86 IN STRESS PERIOD    2
                    SECONDS     MINUTES      HOURS       DAYS        YEARS
                    -----------------------------------------------------------
   TIME STEP LENGTH  86400.      1440.0      24.000      1.0000     2.73785E-03
 STRESS PERIOD TIME 7.43040E+06 1.23840E+05  2064.0      86.000     0.23546    
         TOTAL TIME 7.51680E+06 1.25280E+05  2088.0      87.000     0.23819    
1

 SOLVING FOR HEAD 

 OUTPUT CONTROL FOR STRESS PERIOD    2   TIME STEP   87
    PRINT HEAD FOR ALL LAYERS
    SAVE HEAD FOR ALL LAYERS
    PRINT BUDGET
    SAVE BUDGET
1
              HEAD IN LAYER   1 AT END OF TIME STEP  87 IN STRESS PERIOD    2
  ---------------------------------------------------------------------------

            1           2           3           4           5           6           7           8           9          10
 ........................................................................................................................
   1    9.991       8.882       7.773       6.664       5.555       4.446       3.338       2.229       1.120      1.1089E-02
   2    9.991       8.882       7.773       6.664       5.555       4.446       3.338       2.229       1.120      1.1089E-02
   3    9.991       8.882       7.773       6.664       5.555       4.446       3.338       2.229       1.120      1.1089E-02
   4    9.991       8.882       7.773       6.664       5.555       4.446       3.338       2.229       1.120      1.1089E-02
   5    9.991       8.882       7.773       6.664       5.555       4.446       3.338       2.229       1.120      1.1089E-02
   6    9.991       8.882       7.773       6.664       5.555       4.446       3.338       2.229       1.120      1.1089E-02
   7    9.991       8.882       7.773       6.664       5.555       4.446       3.338       2.229       1.120      1.1089E-02
   8    9.991       8.882       7.773       6.664       5.555       4.446       3.338       2.229       1.120      1.1089E-02
   9    9.991       8.882       7.773       6.664       5.555       4.446       3.338       2.229       1.120      1.1089E-02
  10    9.991       8.882       7.773       6.664       5.555       4.446       3.338       2.229       1.120      1.1089E-02

 HEAD WILL BE SAVED ON UNIT   51 AT END OF TIME STEP   87, STRESS PERIOD    2
1
  VOLUMETRIC BUDGET FOR ENTIRE MODEL AT END OF TIME STEP   87, STRESS PERIOD   2
  ------------------------------------------------------------------------------

     CUMULATIVE VOLUMES      L**3       RATES FOR THIS TIME STEP      L**3/T
     ------------------                 ------------------------

           IN:                                      IN:
           ---                                      ---
             STORAGE =       24995.3750               STORAGE =           0.0000
       CONSTANT HEAD =           0.0000         CONSTANT HEAD =           0.0000
               WELLS =           0.0000                 WELLS =           0.0000
     HEAD DEP BOUNDS =      474903.3438       HEAD DEP BOUNDS =        5544.0171

            TOTAL IN =      499898.7188              TOTAL IN =        5544.0171

          OUT:                                     OUT:
          ----                                     ----
             STORAGE =           0.0000               STORAGE =           0.0000
       CONSTANT HEAD =           0.0000         CONSTANT HEAD =           0.0000
               WELLS =           0.0000                 WELLS =           0.0000
     HEAD DEP BOUNDS =      499917.6562       HEAD DEP BOUNDS =        5544.2617

           TOTAL OUT =      499917.6562             TOTAL OUT =        5544.2617

            IN - OUT =         -18.9375              IN - OUT =          -0.2446

 PERCENT DISCREPANCY =          -0.00     PERCENT DISCREPANCY =          -0.00






         TIME SUMMARY AT END OF TIME STEP   87 IN STRESS PERIOD    2
                    SECONDS     MINUTES      HOURS       DAYS        YEARS
                    -----------------------------------------------------------
   TIME STEP LENGTH  86400.      1440.0      24.000      1.0000     2.73785E-03
 STRESS PERIOD TIME 7.51680E+06 1.25280E+05  2088.0      87.000     0.23819    
         TOTAL TIME 7.60320E+06 1.26720E+05  2112.0      88.000     0.24093    
1

 SOLVING FOR HEAD 

 OUTPUT CONTROL FOR STRESS PERIOD    2   TIME STEP   88
    PRINT HEAD FOR ALL LAYERS
    SAVE HEAD FOR ALL LAYERS
    PRINT BUDGET
    SAVE BUDGET
1
              HEAD IN LAYER   1 AT END OF TIME STEP  88 IN STRESS PERIOD    2
  ---------------------------------------------------------------------------

            1           2           3           4           5           6           7           8           9          10
 ........................................................................................................................
   1    9.991       8.882       7.773       6.664       5.555       4.446       3.338       2.229       1.120      1.1089E-02
   2    9.991       8.882       7.773       6.664       5.555       4.446       3.338       2.229       1.120      1.1089E-02
   3    9.991       8.882       7.773       6.664       5.555       4.446       3.338       2.229       1.120      1.1089E-02
   4    9.991       8.882       7.773       6.664       5.555       4.446       3.338       2.229       1.120      1.1089E-02
   5    9.991       8.882       7.773       6.664       5.555       4.446       3.338       2.229       1.120      1.1089E-02
   6    9.991       8.882       7.773       6.664       5.555       4.446       3.338       2.229       1.120      1.1089E-02
   7    9.991       8.882       7.773       6.664       5.555       4.446       3.338       2.229       1.120      1.1089E-02
   8    9.991       8.882       7.773       6.664       5.555       4.446       3.338       2.229       1.120      1.1089E-02
   9    9.991       8.882       7.773       6.664       5.555       4.446       3.338       2.229       1.120      1.1089E-02
  10    9.991       8.882       7.773       6.664       5.555       4.446       3.338       2.229       1.120      1.1089E-02

 HEAD WILL BE SAVED ON UNIT   51 AT END OF TIME STEP   88, STRESS PERIOD    2
1
  VOLUMETRIC BUDGET FOR ENTIRE MODEL AT END OF TIME STEP   88, STRESS PERIOD   2
  ------------------------------------------------------------------------------

     CUMULATIVE VOLUMES      L**3       RATES FOR THIS TIME STEP      L**3/T
     ------------------                 ------------------------

           IN:                                      IN:
           ---                                      ---
             STORAGE =       24995.3750               STORAGE =           0.0000
       CONSTANT HEAD =           0.0000         CONSTANT HEAD =           0.0000
               WELLS =           0.0000                 WELLS =           0.0000
     HEAD DEP BOUNDS =      480447.3750       HEAD DEP BOUNDS =        5544.0171

            TOTAL IN =      505442.7500              TOTAL IN =        5544.0171

          OUT:                                     OUT:
          ----                                     ----
             STORAGE =           0.0000               STORAGE =           0.0000
       CONSTANT HEAD =           0.0000         CONSTANT HEAD =           0.0000
               WELLS =           0.0000                 WELLS =           0.0000
     HEAD DEP BOUNDS =      505461.9062       HEAD DEP BOUNDS =        5544.2617

           TOTAL OUT =      505461.9062             TOTAL OUT =        5544.2617

            IN - OUT =         -19.1562              IN - OUT =          -0.2446

 PERCENT DISCREPANCY =          -0.00     PERCENT DISCREPANCY =          -0.00






         TIME SUMMARY AT END OF TIME STEP   88 IN STRESS PERIOD    2
                    SECONDS     MINUTES      HOURS       DAYS        YEARS
                    -----------------------------------------------------------
   TIME STEP LENGTH  86400.      1440.0      24.000      1.0000     2.73785E-03
 STRESS PERIOD TIME 7.60320E+06 1.26720E+05  2112.0      88.000     0.24093    
         TOTAL TIME 7.68960E+06 1.28160E+05  2136.0      89.000     0.24367    
1

 SOLVING FOR HEAD 

 OUTPUT CONTROL FOR STRESS PERIOD    2   TIME STEP   89
    PRINT HEAD FOR ALL LAYERS
    SAVE HEAD FOR ALL LAYERS
    PRINT BUDGET
    SAVE BUDGET
1
              HEAD IN LAYER   1 AT END OF TIME STEP  89 IN STRESS PERIOD    2
  ---------------------------------------------------------------------------

            1           2           3           4           5           6           7           8           9          10
 ........................................................................................................................
   1    9.991       8.882       7.773       6.664       5.555       4.446       3.338       2.229       1.120      1.1089E-02
   2    9.991       8.882       7.773       6.664       5.555       4.446       3.338       2.229       1.120      1.1089E-02
   3    9.991       8.882       7.773       6.664       5.555       4.446       3.338       2.229       1.120      1.1089E-02
   4    9.991       8.882       7.773       6.664       5.555       4.446       3.338       2.229       1.120      1.1089E-02
   5    9.991       8.882       7.773       6.664       5.555       4.446       3.338       2.229       1.120      1.1089E-02
   6    9.991       8.882       7.773       6.664       5.555       4.446       3.338       2.229       1.120      1.1089E-02
   7    9.991       8.882       7.773       6.664       5.555       4.446       3.338       2.229       1.120      1.1089E-02
   8    9.991       8.882       7.773       6.664       5.555       4.446       3.338       2.229       1.120      1.1089E-02
   9    9.991       8.882       7.773       6.664       5.555       4.446       3.338       2.229       1.120      1.1089E-02
  10    9.991       8.882       7.773       6.664       5.555       4.446       3.338       2.229       1.120      1.1089E-02

 HEAD WILL BE SAVED ON UNIT   51 AT END OF TIME STEP   89, STRESS PERIOD    2
1
  VOLUMETRIC BUDGET FOR ENTIRE MODEL AT END OF TIME STEP   89, STRESS PERIOD   2
  ------------------------------------------------------------------------------

     CUMULATIVE VOLUMES      L**3       RATES FOR THIS TIME STEP      L**3/T
     ------------------                 ------------------------

           IN:                                      IN:
           ---                                      ---
             STORAGE =       24995.3750               STORAGE =           0.0000
       CONSTANT HEAD =           0.0000         CONSTANT HEAD =           0.0000
               WELLS =           0.0000                 WELLS =           0.0000
     HEAD DEP BOUNDS =      485991.4062       HEAD DEP BOUNDS =        5544.0171

            TOTAL IN =      510986.7812              TOTAL IN =        5544.0171

          OUT:                                     OUT:
          ----                                     ----
             STORAGE =           0.0000               STORAGE =           0.0000
       CONSTANT HEAD =           0.0000         CONSTANT HEAD =           0.0000
               WELLS =           0.0000                 WELLS =           0.0000
     HEAD DEP BOUNDS =      511006.1562       HEAD DEP BOUNDS =        5544.2617

           TOTAL OUT =      511006.1562             TOTAL OUT =        5544.2617

            IN - OUT =         -19.3750              IN - OUT =          -0.2446

 PERCENT DISCREPANCY =          -0.00     PERCENT DISCREPANCY =          -0.00






         TIME SUMMARY AT END OF TIME STEP   89 IN STRESS PERIOD    2
                    SECONDS     MINUTES      HOURS       DAYS        YEARS
                    -----------------------------------------------------------
   TIME STEP LENGTH  86400.      1440.0      24.000      1.0000     2.73785E-03
 STRESS PERIOD TIME 7.68960E+06 1.28160E+05  2136.0      89.000     0.24367    
         TOTAL TIME 7.77600E+06 1.29600E+05  2160.0      90.000     0.24641    
1

 SOLVING FOR HEAD 

 OUTPUT CONTROL FOR STRESS PERIOD    2   TIME STEP   90
    PRINT HEAD FOR ALL LAYERS
    SAVE HEAD FOR ALL LAYERS
    PRINT BUDGET
    SAVE BUDGET
1
              HEAD IN LAYER   1 AT END OF TIME STEP  90 IN STRESS PERIOD    2
  ---------------------------------------------------------------------------

            1           2           3           4           5           6           7           8           9          10
 ........................................................................................................................
   1    9.991       8.882       7.773       6.664       5.555       4.446       3.338       2.229       1.120      1.1089E-02
   2    9.991       8.882       7.773       6.664       5.555       4.446       3.338       2.229       1.120      1.1089E-02
   3    9.991       8.882       7.773       6.664       5.555       4.446       3.338       2.229       1.120      1.1089E-02
   4    9.991       8.882       7.773       6.664       5.555       4.446       3.338       2.229       1.120      1.1089E-02
   5    9.991       8.882       7.773       6.664       5.555       4.446       3.338       2.229       1.120      1.1089E-02
   6    9.991       8.882       7.773       6.664       5.555       4.446       3.338       2.229       1.120      1.1089E-02
   7    9.991       8.882       7.773       6.664       5.555       4.446       3.338       2.229       1.120      1.1089E-02
   8    9.991       8.882       7.773       6.664       5.555       4.446       3.338       2.229       1.120      1.1089E-02
   9    9.991       8.882       7.773       6.664       5.555       4.446       3.338       2.229       1.120      1.1089E-02
  10    9.991       8.882       7.773       6.664       5.555       4.446       3.338       2.229       1.120      1.1089E-02

 HEAD WILL BE SAVED ON UNIT   51 AT END OF TIME STEP   90, STRESS PERIOD    2
1
  VOLUMETRIC BUDGET FOR ENTIRE MODEL AT END OF TIME STEP   90, STRESS PERIOD   2
  ------------------------------------------------------------------------------

     CUMULATIVE VOLUMES      L**3       RATES FOR THIS TIME STEP      L**3/T
     ------------------                 ------------------------

           IN:                                      IN:
           ---                                      ---
             STORAGE =       24995.3750               STORAGE =           0.0000
       CONSTANT HEAD =           0.0000         CONSTANT HEAD =           0.0000
               WELLS =           0.0000                 WELLS =           0.0000
     HEAD DEP BOUNDS =      491535.4375       HEAD DEP BOUNDS =        5544.0171

            TOTAL IN =      516530.8125              TOTAL IN =        5544.0171

          OUT:                                     OUT:
          ----                                     ----
             STORAGE =           0.0000               STORAGE =           0.0000
       CONSTANT HEAD =           0.0000         CONSTANT HEAD =           0.0000
               WELLS =           0.0000                 WELLS =           0.0000
     HEAD DEP BOUNDS =      516550.4062       HEAD DEP BOUNDS =        5544.2617

           TOTAL OUT =      516550.4062             TOTAL OUT =        5544.2617

            IN - OUT =         -19.5938              IN - OUT =          -0.2446

 PERCENT DISCREPANCY =          -0.00     PERCENT DISCREPANCY =          -0.00






         TIME SUMMARY AT END OF TIME STEP   90 IN STRESS PERIOD    2
                    SECONDS     MINUTES      HOURS       DAYS        YEARS
                    -----------------------------------------------------------
   TIME STEP LENGTH  86400.      1440.0      24.000      1.0000     2.73785E-03
 STRESS PERIOD TIME 7.77600E+06 1.29600E+05  2160.0      90.000     0.24641    
         TOTAL TIME 7.86240E+06 1.31040E+05  2184.0      91.000     0.24914    
1

 SOLVING FOR HEAD 

 OUTPUT CONTROL FOR STRESS PERIOD    2   TIME STEP   91
    PRINT HEAD FOR ALL LAYERS
    SAVE HEAD FOR ALL LAYERS
    PRINT BUDGET
    SAVE BUDGET
1
              HEAD IN LAYER   1 AT END OF TIME STEP  91 IN STRESS PERIOD    2
  ---------------------------------------------------------------------------

            1           2           3           4           5           6           7           8           9          10
 ........................................................................................................................
   1    9.991       8.882       7.773       6.664       5.555       4.446       3.338       2.229       1.120      1.1089E-02
   2    9.991       8.882       7.773       6.664       5.555       4.446       3.338       2.229       1.120      1.1089E-02
   3    9.991       8.882       7.773       6.664       5.555       4.446       3.338       2.229       1.120      1.1089E-02
   4    9.991       8.882       7.773       6.664       5.555       4.446       3.338       2.229       1.120      1.1089E-02
   5    9.991       8.882       7.773       6.664       5.555       4.446       3.338       2.229       1.120      1.1089E-02
   6    9.991       8.882       7.773       6.664       5.555       4.446       3.338       2.229       1.120      1.1089E-02
   7    9.991       8.882       7.773       6.664       5.555       4.446       3.338       2.229       1.120      1.1089E-02
   8    9.991       8.882       7.773       6.664       5.555       4.446       3.338       2.229       1.120      1.1089E-02
   9    9.991       8.882       7.773       6.664       5.555       4.446       3.338       2.229       1.120      1.1089E-02
  10    9.991       8.882       7.773       6.664       5.555       4.446       3.338       2.229       1.120      1.1089E-02

 HEAD WILL BE SAVED ON UNIT   51 AT END OF TIME STEP   91, STRESS PERIOD    2
1
  VOLUMETRIC BUDGET FOR ENTIRE MODEL AT END OF TIME STEP   91, STRESS PERIOD   2
  ------------------------------------------------------------------------------

     CUMULATIVE VOLUMES      L**3       RATES FOR THIS TIME STEP      L**3/T
     ------------------                 ------------------------

           IN:                                      IN:
           ---                                      ---
             STORAGE =       24995.3750               STORAGE =           0.0000
       CONSTANT HEAD =           0.0000         CONSTANT HEAD =           0.0000
               WELLS =           0.0000                 WELLS =           0.0000
     HEAD DEP BOUNDS =      497079.4688       HEAD DEP BOUNDS =        5544.0171

            TOTAL IN =      522074.8438              TOTAL IN =        5544.0171

          OUT:                                     OUT:
          ----                                     ----
             STORAGE =           0.0000               STORAGE =           0.0000
       CONSTANT HEAD =           0.0000         CONSTANT HEAD =           0.0000
               WELLS =           0.0000                 WELLS =           0.0000
     HEAD DEP BOUNDS =      522094.6562       HEAD DEP BOUNDS =        5544.2617

           TOTAL OUT =      522094.6562             TOTAL OUT =        5544.2617

            IN - OUT =         -19.8125              IN - OUT =          -0.2446

 PERCENT DISCREPANCY =          -0.00     PERCENT DISCREPANCY =          -0.00






         TIME SUMMARY AT END OF TIME STEP   91 IN STRESS PERIOD    2
                    SECONDS     MINUTES      HOURS       DAYS        YEARS
                    -----------------------------------------------------------
   TIME STEP LENGTH  86400.      1440.0      24.000      1.0000     2.73785E-03
 STRESS PERIOD TIME 7.86240E+06 1.31040E+05  2184.0      91.000     0.24914    
         TOTAL TIME 7.94880E+06 1.32480E+05  2208.0      92.000     0.25188    
1

 SOLVING FOR HEAD 

 OUTPUT CONTROL FOR STRESS PERIOD    2   TIME STEP   92
    PRINT HEAD FOR ALL LAYERS
    SAVE HEAD FOR ALL LAYERS
    PRINT BUDGET
    SAVE BUDGET
1
              HEAD IN LAYER   1 AT END OF TIME STEP  92 IN STRESS PERIOD    2
  ---------------------------------------------------------------------------

            1           2           3           4           5           6           7           8           9          10
 ........................................................................................................................
   1    9.991       8.882       7.773       6.664       5.555       4.446       3.338       2.229       1.120      1.1089E-02
   2    9.991       8.882       7.773       6.664       5.555       4.446       3.338       2.229       1.120      1.1089E-02
   3    9.991       8.882       7.773       6.664       5.555       4.446       3.338       2.229       1.120      1.1089E-02
   4    9.991       8.882       7.773       6.664       5.555       4.446       3.338       2.229       1.120      1.1089E-02
   5    9.991       8.882       7.773       6.664       5.555       4.446       3.338       2.229       1.120      1.1089E-02
   6    9.991       8.882       7.773       6.664       5.555       4.446       3.338       2.229       1.120      1.1089E-02
   7    9.991       8.882       7.773       6.664       5.555       4.446       3.338       2.229       1.120      1.1089E-02
   8    9.991       8.882       7.773       6.664       5.555       4.446       3.338       2.229       1.120      1.1089E-02
   9    9.991       8.882       7.773       6.664       5.555       4.446       3.338       2.229       1.120      1.1089E-02
  10    9.991       8.882       7.773       6.664       5.555       4.446       3.338       2.229       1.120      1.1089E-02

 HEAD WILL BE SAVED ON UNIT   51 AT END OF TIME STEP   92, STRESS PERIOD    2
1
  VOLUMETRIC BUDGET FOR ENTIRE MODEL AT END OF TIME STEP   92, STRESS PERIOD   2
  ------------------------------------------------------------------------------

     CUMULATIVE VOLUMES      L**3       RATES FOR THIS TIME STEP      L**3/T
     ------------------                 ------------------------

           IN:                                      IN:
           ---                                      ---
             STORAGE =       24995.3750               STORAGE =           0.0000
       CONSTANT HEAD =           0.0000         CONSTANT HEAD =           0.0000
               WELLS =           0.0000                 WELLS =           0.0000
     HEAD DEP BOUNDS =      502623.5000       HEAD DEP BOUNDS =        5544.0171

            TOTAL IN =      527618.8750              TOTAL IN =        5544.0171

          OUT:                                     OUT:
          ----                                     ----
             STORAGE =           0.0000               STORAGE =           0.0000
       CONSTANT HEAD =           0.0000         CONSTANT HEAD =           0.0000
               WELLS =           0.0000                 WELLS =           0.0000
     HEAD DEP BOUNDS =      527638.9375       HEAD DEP BOUNDS =        5544.2617

           TOTAL OUT =      527638.9375             TOTAL OUT =        5544.2617

            IN - OUT =         -20.0625              IN - OUT =          -0.2446

 PERCENT DISCREPANCY =          -0.00     PERCENT DISCREPANCY =          -0.00






         TIME SUMMARY AT END OF TIME STEP   92 IN STRESS PERIOD    2
                    SECONDS     MINUTES      HOURS       DAYS        YEARS
                    -----------------------------------------------------------
   TIME STEP LENGTH  86400.      1440.0      24.000      1.0000     2.73785E-03
 STRESS PERIOD TIME 7.94880E+06 1.32480E+05  2208.0      92.000     0.25188    
         TOTAL TIME 8.03520E+06 1.33920E+05  2232.0      93.000     0.25462    
1

 SOLVING FOR HEAD 

 OUTPUT CONTROL FOR STRESS PERIOD    2   TIME STEP   93
    PRINT HEAD FOR ALL LAYERS
    SAVE HEAD FOR ALL LAYERS
    PRINT BUDGET
    SAVE BUDGET
1
              HEAD IN LAYER   1 AT END OF TIME STEP  93 IN STRESS PERIOD    2
  ---------------------------------------------------------------------------

            1           2           3           4           5           6           7           8           9          10
 ........................................................................................................................
   1    9.991       8.882       7.773       6.664       5.555       4.446       3.338       2.229       1.120      1.1089E-02
   2    9.991       8.882       7.773       6.664       5.555       4.446       3.338       2.229       1.120      1.1089E-02
   3    9.991       8.882       7.773       6.664       5.555       4.446       3.338       2.229       1.120      1.1089E-02
   4    9.991       8.882       7.773       6.664       5.555       4.446       3.338       2.229       1.120      1.1089E-02
   5    9.991       8.882       7.773       6.664       5.555       4.446       3.338       2.229       1.120      1.1089E-02
   6    9.991       8.882       7.773       6.664       5.555       4.446       3.338       2.229       1.120      1.1089E-02
   7    9.991       8.882       7.773       6.664       5.555       4.446       3.338       2.229       1.120      1.1089E-02
   8    9.991       8.882       7.773       6.664       5.555       4.446       3.338       2.229       1.120      1.1089E-02
   9    9.991       8.882       7.773       6.664       5.555       4.446       3.338       2.229       1.120      1.1089E-02
  10    9.991       8.882       7.773       6.664       5.555       4.446       3.338       2.229       1.120      1.1089E-02

 HEAD WILL BE SAVED ON UNIT   51 AT END OF TIME STEP   93, STRESS PERIOD    2
1
  VOLUMETRIC BUDGET FOR ENTIRE MODEL AT END OF TIME STEP   93, STRESS PERIOD   2
  ------------------------------------------------------------------------------

     CUMULATIVE VOLUMES      L**3       RATES FOR THIS TIME STEP      L**3/T
     ------------------                 ------------------------

           IN:                                      IN:
           ---                                      ---
             STORAGE =       24995.3750               STORAGE =           0.0000
       CONSTANT HEAD =           0.0000         CONSTANT HEAD =           0.0000
               WELLS =           0.0000                 WELLS =           0.0000
     HEAD DEP BOUNDS =      508167.5312       HEAD DEP BOUNDS =        5544.0171

            TOTAL IN =      533162.8750              TOTAL IN =        5544.0171

          OUT:                                     OUT:
          ----                                     ----
             STORAGE =           0.0000               STORAGE =           0.0000
       CONSTANT HEAD =           0.0000         CONSTANT HEAD =           0.0000
               WELLS =           0.0000                 WELLS =           0.0000
     HEAD DEP BOUNDS =      533183.1875       HEAD DEP BOUNDS =        5544.2617

           TOTAL OUT =      533183.1875             TOTAL OUT =        5544.2617

            IN - OUT =         -20.3125              IN - OUT =          -0.2446

 PERCENT DISCREPANCY =          -0.00     PERCENT DISCREPANCY =          -0.00






         TIME SUMMARY AT END OF TIME STEP   93 IN STRESS PERIOD    2
                    SECONDS     MINUTES      HOURS       DAYS        YEARS
                    -----------------------------------------------------------
   TIME STEP LENGTH  86400.      1440.0      24.000      1.0000     2.73785E-03
 STRESS PERIOD TIME 8.03520E+06 1.33920E+05  2232.0      93.000     0.25462    
         TOTAL TIME 8.12160E+06 1.35360E+05  2256.0      94.000     0.25736    
1

 SOLVING FOR HEAD 

 OUTPUT CONTROL FOR STRESS PERIOD    2   TIME STEP   94
    PRINT HEAD FOR ALL LAYERS
    SAVE HEAD FOR ALL LAYERS
    PRINT BUDGET
    SAVE BUDGET
1
              HEAD IN LAYER   1 AT END OF TIME STEP  94 IN STRESS PERIOD    2
  ---------------------------------------------------------------------------

            1           2           3           4           5           6           7           8           9          10
 ........................................................................................................................
   1    9.991       8.882       7.773       6.664       5.555       4.446       3.338       2.229       1.120      1.1089E-02
   2    9.991       8.882       7.773       6.664       5.555       4.446       3.338       2.229       1.120      1.1089E-02
   3    9.991       8.882       7.773       6.664       5.555       4.446       3.338       2.229       1.120      1.1089E-02
   4    9.991       8.882       7.773       6.664       5.555       4.446       3.338       2.229       1.120      1.1089E-02
   5    9.991       8.882       7.773       6.664       5.555       4.446       3.338       2.229       1.120      1.1089E-02
   6    9.991       8.882       7.773       6.664       5.555       4.446       3.338       2.229       1.120      1.1089E-02
   7    9.991       8.882       7.773       6.664       5.555       4.446       3.338       2.229       1.120      1.1089E-02
   8    9.991       8.882       7.773       6.664       5.555       4.446       3.338       2.229       1.120      1.1089E-02
   9    9.991       8.882       7.773       6.664       5.555       4.446       3.338       2.229       1.120      1.1089E-02
  10    9.991       8.882       7.773       6.664       5.555       4.446       3.338       2.229       1.120      1.1089E-02

 HEAD WILL BE SAVED ON UNIT   51 AT END OF TIME STEP   94, STRESS PERIOD    2
1
  VOLUMETRIC BUDGET FOR ENTIRE MODEL AT END OF TIME STEP   94, STRESS PERIOD   2
  ------------------------------------------------------------------------------

     CUMULATIVE VOLUMES      L**3       RATES FOR THIS TIME STEP      L**3/T
     ------------------                 ------------------------

           IN:                                      IN:
           ---                                      ---
             STORAGE =       24995.3750               STORAGE =           0.0000
       CONSTANT HEAD =           0.0000         CONSTANT HEAD =           0.0000
               WELLS =           0.0000                 WELLS =           0.0000
     HEAD DEP BOUNDS =      513711.5625       HEAD DEP BOUNDS =        5544.0171

            TOTAL IN =      538706.9375              TOTAL IN =        5544.0171

          OUT:                                     OUT:
          ----                                     ----
             STORAGE =           0.0000               STORAGE =           0.0000
       CONSTANT HEAD =           0.0000         CONSTANT HEAD =           0.0000
               WELLS =           0.0000                 WELLS =           0.0000
     HEAD DEP BOUNDS =      538727.4375       HEAD DEP BOUNDS =        5544.2617

           TOTAL OUT =      538727.4375             TOTAL OUT =        5544.2617

            IN - OUT =         -20.5000              IN - OUT =          -0.2446

 PERCENT DISCREPANCY =          -0.00     PERCENT DISCREPANCY =          -0.00






         TIME SUMMARY AT END OF TIME STEP   94 IN STRESS PERIOD    2
                    SECONDS     MINUTES      HOURS       DAYS        YEARS
                    -----------------------------------------------------------
   TIME STEP LENGTH  86400.      1440.0      24.000      1.0000     2.73785E-03
 STRESS PERIOD TIME 8.12160E+06 1.35360E+05  2256.0      94.000     0.25736    
         TOTAL TIME 8.20800E+06 1.36800E+05  2280.0      95.000     0.26010    
1

 SOLVING FOR HEAD 

 OUTPUT CONTROL FOR STRESS PERIOD    2   TIME STEP   95
    PRINT HEAD FOR ALL LAYERS
    SAVE HEAD FOR ALL LAYERS
    PRINT BUDGET
    SAVE BUDGET
1
              HEAD IN LAYER   1 AT END OF TIME STEP  95 IN STRESS PERIOD    2
  ---------------------------------------------------------------------------

            1           2           3           4           5           6           7           8           9          10
 ........................................................................................................................
   1    9.991       8.882       7.773       6.664       5.555       4.446       3.338       2.229       1.120      1.1089E-02
   2    9.991       8.882       7.773       6.664       5.555       4.446       3.338       2.229       1.120      1.1089E-02
   3    9.991       8.882       7.773       6.664       5.555       4.446       3.338       2.229       1.120      1.1089E-02
   4    9.991       8.882       7.773       6.664       5.555       4.446       3.338       2.229       1.120      1.1089E-02
   5    9.991       8.882       7.773       6.664       5.555       4.446       3.338       2.229       1.120      1.1089E-02
   6    9.991       8.882       7.773       6.664       5.555       4.446       3.338       2.229       1.120      1.1089E-02
   7    9.991       8.882       7.773       6.664       5.555       4.446       3.338       2.229       1.120      1.1089E-02
   8    9.991       8.882       7.773       6.664       5.555       4.446       3.338       2.229       1.120      1.1089E-02
   9    9.991       8.882       7.773       6.664       5.555       4.446       3.338       2.229       1.120      1.1089E-02
  10    9.991       8.882       7.773       6.664       5.555       4.446       3.338       2.229       1.120      1.1089E-02

 HEAD WILL BE SAVED ON UNIT   51 AT END OF TIME STEP   95, STRESS PERIOD    2
1
  VOLUMETRIC BUDGET FOR ENTIRE MODEL AT END OF TIME STEP   95, STRESS PERIOD   2
  ------------------------------------------------------------------------------

     CUMULATIVE VOLUMES      L**3       RATES FOR THIS TIME STEP      L**3/T
     ------------------                 ------------------------

           IN:                                      IN:
           ---                                      ---
             STORAGE =       24995.3750               STORAGE =           0.0000
       CONSTANT HEAD =           0.0000         CONSTANT HEAD =           0.0000
               WELLS =           0.0000                 WELLS =           0.0000
     HEAD DEP BOUNDS =      519255.5938       HEAD DEP BOUNDS =        5544.0171

            TOTAL IN =      544251.0000              TOTAL IN =        5544.0171

          OUT:                                     OUT:
          ----                                     ----
             STORAGE =           0.0000               STORAGE =           0.0000
       CONSTANT HEAD =           0.0000         CONSTANT HEAD =           0.0000
               WELLS =           0.0000                 WELLS =           0.0000
     HEAD DEP BOUNDS =      544271.6875       HEAD DEP BOUNDS =        5544.2617

           TOTAL OUT =      544271.6875             TOTAL OUT =        5544.2617

            IN - OUT =         -20.6875              IN - OUT =          -0.2446

 PERCENT DISCREPANCY =          -0.00     PERCENT DISCREPANCY =          -0.00






         TIME SUMMARY AT END OF TIME STEP   95 IN STRESS PERIOD    2
                    SECONDS     MINUTES      HOURS       DAYS        YEARS
                    -----------------------------------------------------------
   TIME STEP LENGTH  86400.      1440.0      24.000      1.0000     2.73785E-03
 STRESS PERIOD TIME 8.20800E+06 1.36800E+05  2280.0      95.000     0.26010    
         TOTAL TIME 8.29440E+06 1.38240E+05  2304.0      96.000     0.26283    
1

 SOLVING FOR HEAD 

 OUTPUT CONTROL FOR STRESS PERIOD    2   TIME STEP   96
    PRINT HEAD FOR ALL LAYERS
    SAVE HEAD FOR ALL LAYERS
    PRINT BUDGET
    SAVE BUDGET
1
              HEAD IN LAYER   1 AT END OF TIME STEP  96 IN STRESS PERIOD    2
  ---------------------------------------------------------------------------

            1           2           3           4           5           6           7           8           9          10
 ........................................................................................................................
   1    9.991       8.882       7.773       6.664       5.555       4.446       3.338       2.229       1.120      1.1089E-02
   2    9.991       8.882       7.773       6.664       5.555       4.446       3.338       2.229       1.120      1.1089E-02
   3    9.991       8.882       7.773       6.664       5.555       4.446       3.338       2.229       1.120      1.1089E-02
   4    9.991       8.882       7.773       6.664       5.555       4.446       3.338       2.229       1.120      1.1089E-02
   5    9.991       8.882       7.773       6.664       5.555       4.446       3.338       2.229       1.120      1.1089E-02
   6    9.991       8.882       7.773       6.664       5.555       4.446       3.338       2.229       1.120      1.1089E-02
   7    9.991       8.882       7.773       6.664       5.555       4.446       3.338       2.229       1.120      1.1089E-02
   8    9.991       8.882       7.773       6.664       5.555       4.446       3.338       2.229       1.120      1.1089E-02
   9    9.991       8.882       7.773       6.664       5.555       4.446       3.338       2.229       1.120      1.1089E-02
  10    9.991       8.882       7.773       6.664       5.555       4.446       3.338       2.229       1.120      1.1089E-02

 HEAD WILL BE SAVED ON UNIT   51 AT END OF TIME STEP   96, STRESS PERIOD    2
1
  VOLUMETRIC BUDGET FOR ENTIRE MODEL AT END OF TIME STEP   96, STRESS PERIOD   2
  ------------------------------------------------------------------------------

     CUMULATIVE VOLUMES      L**3       RATES FOR THIS TIME STEP      L**3/T
     ------------------                 ------------------------

           IN:                                      IN:
           ---                                      ---
             STORAGE =       24995.3750               STORAGE =           0.0000
       CONSTANT HEAD =           0.0000         CONSTANT HEAD =           0.0000
               WELLS =           0.0000                 WELLS =           0.0000
     HEAD DEP BOUNDS =      524799.6250       HEAD DEP BOUNDS =        5544.0171

            TOTAL IN =      549795.0000              TOTAL IN =        5544.0171

          OUT:                                     OUT:
          ----                                     ----
             STORAGE =           0.0000               STORAGE =           0.0000
       CONSTANT HEAD =           0.0000         CONSTANT HEAD =           0.0000
               WELLS =           0.0000                 WELLS =           0.0000
     HEAD DEP BOUNDS =      549815.9375       HEAD DEP BOUNDS =        5544.2617

           TOTAL OUT =      549815.9375             TOTAL OUT =        5544.2617

            IN - OUT =         -20.9375              IN - OUT =          -0.2446

 PERCENT DISCREPANCY =          -0.00     PERCENT DISCREPANCY =          -0.00






         TIME SUMMARY AT END OF TIME STEP   96 IN STRESS PERIOD    2
                    SECONDS     MINUTES      HOURS       DAYS        YEARS
                    -----------------------------------------------------------
   TIME STEP LENGTH  86400.      1440.0      24.000      1.0000     2.73785E-03
 STRESS PERIOD TIME 8.29440E+06 1.38240E+05  2304.0      96.000     0.26283    
         TOTAL TIME 8.38080E+06 1.39680E+05  2328.0      97.000     0.26557    
1

 SOLVING FOR HEAD 

 OUTPUT CONTROL FOR STRESS PERIOD    2   TIME STEP   97
    PRINT HEAD FOR ALL LAYERS
    SAVE HEAD FOR ALL LAYERS
    PRINT BUDGET
    SAVE BUDGET
1
              HEAD IN LAYER   1 AT END OF TIME STEP  97 IN STRESS PERIOD    2
  ---------------------------------------------------------------------------

            1           2           3           4           5           6           7           8           9          10
 ........................................................................................................................
   1    9.991       8.882       7.773       6.664       5.555       4.446       3.338       2.229       1.120      1.1089E-02
   2    9.991       8.882       7.773       6.664       5.555       4.446       3.338       2.229       1.120      1.1089E-02
   3    9.991       8.882       7.773       6.664       5.555       4.446       3.338       2.229       1.120      1.1089E-02
   4    9.991       8.882       7.773       6.664       5.555       4.446       3.338       2.229       1.120      1.1089E-02
   5    9.991       8.882       7.773       6.664       5.555       4.446       3.338       2.229       1.120      1.1089E-02
   6    9.991       8.882       7.773       6.664       5.555       4.446       3.338       2.229       1.120      1.1089E-02
   7    9.991       8.882       7.773       6.664       5.555       4.446       3.338       2.229       1.120      1.1089E-02
   8    9.991       8.882       7.773       6.664       5.555       4.446       3.338       2.229       1.120      1.1089E-02
   9    9.991       8.882       7.773       6.664       5.555       4.446       3.338       2.229       1.120      1.1089E-02
  10    9.991       8.882       7.773       6.664       5.555       4.446       3.338       2.229       1.120      1.1089E-02

 HEAD WILL BE SAVED ON UNIT   51 AT END OF TIME STEP   97, STRESS PERIOD    2
1
  VOLUMETRIC BUDGET FOR ENTIRE MODEL AT END OF TIME STEP   97, STRESS PERIOD   2
  ------------------------------------------------------------------------------

     CUMULATIVE VOLUMES      L**3       RATES FOR THIS TIME STEP      L**3/T
     ------------------                 ------------------------

           IN:                                      IN:
           ---                                      ---
             STORAGE =       24995.3750               STORAGE =           0.0000
       CONSTANT HEAD =           0.0000         CONSTANT HEAD =           0.0000
               WELLS =           0.0000                 WELLS =           0.0000
     HEAD DEP BOUNDS =      530343.6250       HEAD DEP BOUNDS =        5544.0171

            TOTAL IN =      555339.0000              TOTAL IN =        5544.0171

          OUT:                                     OUT:
          ----                                     ----
             STORAGE =           0.0000               STORAGE =           0.0000
       CONSTANT HEAD =           0.0000         CONSTANT HEAD =           0.0000
               WELLS =           0.0000                 WELLS =           0.0000
     HEAD DEP BOUNDS =      555360.1875       HEAD DEP BOUNDS =        5544.2617

           TOTAL OUT =      555360.1875             TOTAL OUT =        5544.2617

            IN - OUT =         -21.1875              IN - OUT =          -0.2446

 PERCENT DISCREPANCY =          -0.00     PERCENT DISCREPANCY =          -0.00






         TIME SUMMARY AT END OF TIME STEP   97 IN STRESS PERIOD    2
                    SECONDS     MINUTES      HOURS       DAYS        YEARS
                    -----------------------------------------------------------
   TIME STEP LENGTH  86400.      1440.0      24.000      1.0000     2.73785E-03
 STRESS PERIOD TIME 8.38080E+06 1.39680E+05  2328.0      97.000     0.26557    
         TOTAL TIME 8.46720E+06 1.41120E+05  2352.0      98.000     0.26831    
1

 SOLVING FOR HEAD 

 OUTPUT CONTROL FOR STRESS PERIOD    2   TIME STEP   98
    PRINT HEAD FOR ALL LAYERS
    SAVE HEAD FOR ALL LAYERS
    PRINT BUDGET
    SAVE BUDGET
1
              HEAD IN LAYER   1 AT END OF TIME STEP  98 IN STRESS PERIOD    2
  ---------------------------------------------------------------------------

            1           2           3           4           5           6           7           8           9          10
 ........................................................................................................................
   1    9.991       8.882       7.773       6.664       5.555       4.446       3.338       2.229       1.120      1.1089E-02
   2    9.991       8.882       7.773       6.664       5.555       4.446       3.338       2.229       1.120      1.1089E-02
   3    9.991       8.882       7.773       6.664       5.555       4.446       3.338       2.229       1.120      1.1089E-02
   4    9.991       8.882       7.773       6.664       5.555       4.446       3.338       2.229       1.120      1.1089E-02
   5    9.991       8.882       7.773       6.664       5.555       4.446       3.338       2.229       1.120      1.1089E-02
   6    9.991       8.882       7.773       6.664       5.555       4.446       3.338       2.229       1.120      1.1089E-02
   7    9.991       8.882       7.773       6.664       5.555       4.446       3.338       2.229       1.120      1.1089E-02
   8    9.991       8.882       7.773       6.664       5.555       4.446       3.338       2.229       1.120      1.1089E-02
   9    9.991       8.882       7.773       6.664       5.555       4.446       3.338       2.229       1.120      1.1089E-02
  10    9.991       8.882       7.773       6.664       5.555       4.446       3.338       2.229       1.120      1.1089E-02

 HEAD WILL BE SAVED ON UNIT   51 AT END OF TIME STEP   98, STRESS PERIOD    2
1
  VOLUMETRIC BUDGET FOR ENTIRE MODEL AT END OF TIME STEP   98, STRESS PERIOD   2
  ------------------------------------------------------------------------------

     CUMULATIVE VOLUMES      L**3       RATES FOR THIS TIME STEP      L**3/T
     ------------------                 ------------------------

           IN:                                      IN:
           ---                                      ---
             STORAGE =       24995.3750               STORAGE =           0.0000
       CONSTANT HEAD =           0.0000         CONSTANT HEAD =           0.0000
               WELLS =           0.0000                 WELLS =           0.0000
     HEAD DEP BOUNDS =      535887.6250       HEAD DEP BOUNDS =        5544.0171

            TOTAL IN =      560883.0000              TOTAL IN =        5544.0171

          OUT:                                     OUT:
          ----                                     ----
             STORAGE =           0.0000               STORAGE =           0.0000
       CONSTANT HEAD =           0.0000         CONSTANT HEAD =           0.0000
               WELLS =           0.0000                 WELLS =           0.0000
     HEAD DEP BOUNDS =      560904.4375       HEAD DEP BOUNDS =        5544.2617

           TOTAL OUT =      560904.4375             TOTAL OUT =        5544.2617

            IN - OUT =         -21.4375              IN - OUT =          -0.2446

 PERCENT DISCREPANCY =          -0.00     PERCENT DISCREPANCY =          -0.00






         TIME SUMMARY AT END OF TIME STEP   98 IN STRESS PERIOD    2
                    SECONDS     MINUTES      HOURS       DAYS        YEARS
                    -----------------------------------------------------------
   TIME STEP LENGTH  86400.      1440.0      24.000      1.0000     2.73785E-03
 STRESS PERIOD TIME 8.46720E+06 1.41120E+05  2352.0      98.000     0.26831    
         TOTAL TIME 8.55360E+06 1.42560E+05  2376.0      99.000     0.27105    
1

 SOLVING FOR HEAD 

 OUTPUT CONTROL FOR STRESS PERIOD    2   TIME STEP   99
    PRINT HEAD FOR ALL LAYERS
    SAVE HEAD FOR ALL LAYERS
    PRINT BUDGET
    SAVE BUDGET
1
              HEAD IN LAYER   1 AT END OF TIME STEP  99 IN STRESS PERIOD    2
  ---------------------------------------------------------------------------

            1           2           3           4           5           6           7           8           9          10
 ........................................................................................................................
   1    9.991       8.882       7.773       6.664       5.555       4.446       3.338       2.229       1.120      1.1089E-02
   2    9.991       8.882       7.773       6.664       5.555       4.446       3.338       2.229       1.120      1.1089E-02
   3    9.991       8.882       7.773       6.664       5.555       4.446       3.338       2.229       1.120      1.1089E-02
   4    9.991       8.882       7.773       6.664       5.555       4.446       3.338       2.229       1.120      1.1089E-02
   5    9.991       8.882       7.773       6.664       5.555       4.446       3.338       2.229       1.120      1.1089E-02
   6    9.991       8.882       7.773       6.664       5.555       4.446       3.338       2.229       1.120      1.1089E-02
   7    9.991       8.882       7.773       6.664       5.555       4.446       3.338       2.229       1.120      1.1089E-02
   8    9.991       8.882       7.773       6.664       5.555       4.446       3.338       2.229       1.120      1.1089E-02
   9    9.991       8.882       7.773       6.664       5.555       4.446       3.338       2.229       1.120      1.1089E-02
  10    9.991       8.882       7.773       6.664       5.555       4.446       3.338       2.229       1.120      1.1089E-02

 HEAD WILL BE SAVED ON UNIT   51 AT END OF TIME STEP   99, STRESS PERIOD    2
1
  VOLUMETRIC BUDGET FOR ENTIRE MODEL AT END OF TIME STEP   99, STRESS PERIOD   2
  ------------------------------------------------------------------------------

     CUMULATIVE VOLUMES      L**3       RATES FOR THIS TIME STEP      L**3/T
     ------------------                 ------------------------

           IN:                                      IN:
           ---                                      ---
             STORAGE =       24995.3750               STORAGE =           0.0000
       CONSTANT HEAD =           0.0000         CONSTANT HEAD =           0.0000
               WELLS =           0.0000                 WELLS =           0.0000
     HEAD DEP BOUNDS =      541431.6250       HEAD DEP BOUNDS =        5544.0171

            TOTAL IN =      566427.0000              TOTAL IN =        5544.0171

          OUT:                                     OUT:
          ----                                     ----
             STORAGE =           0.0000               STORAGE =           0.0000
       CONSTANT HEAD =           0.0000         CONSTANT HEAD =           0.0000
               WELLS =           0.0000                 WELLS =           0.0000
     HEAD DEP BOUNDS =      566448.6875       HEAD DEP BOUNDS =        5544.2617

           TOTAL OUT =      566448.6875             TOTAL OUT =        5544.2617

            IN - OUT =         -21.6875              IN - OUT =          -0.2446

 PERCENT DISCREPANCY =          -0.00     PERCENT DISCREPANCY =          -0.00






         TIME SUMMARY AT END OF TIME STEP   99 IN STRESS PERIOD    2
                    SECONDS     MINUTES      HOURS       DAYS        YEARS
                    -----------------------------------------------------------
   TIME STEP LENGTH  86400.      1440.0      24.000      1.0000     2.73785E-03
 STRESS PERIOD TIME 8.55360E+06 1.42560E+05  2376.0      99.000     0.27105    
         TOTAL TIME 8.64000E+06 1.44000E+05  2400.0      100.00     0.27379    
1

 SOLVING FOR HEAD 

 OUTPUT CONTROL FOR STRESS PERIOD    2   TIME STEP  100
    PRINT HEAD FOR ALL LAYERS
    SAVE HEAD FOR ALL LAYERS
    PRINT BUDGET
    SAVE BUDGET
1
              HEAD IN LAYER   1 AT END OF TIME STEP 100 IN STRESS PERIOD    2
  ---------------------------------------------------------------------------

            1           2           3           4           5           6           7           8           9          10
 ........................................................................................................................
   1    9.991       8.882       7.773       6.664       5.555       4.446       3.338       2.229       1.120      1.1089E-02
   2    9.991       8.882       7.773       6.664       5.555       4.446       3.338       2.229       1.120      1.1089E-02
   3    9.991       8.882       7.773       6.664       5.555       4.446       3.338       2.229       1.120      1.1089E-02
   4    9.991       8.882       7.773       6.664       5.555       4.446       3.338       2.229       1.120      1.1089E-02
   5    9.991       8.882       7.773       6.664       5.555       4.446       3.338       2.229       1.120      1.1089E-02
   6    9.991       8.882       7.773       6.664       5.555       4.446       3.338       2.229       1.120      1.1089E-02
   7    9.991       8.882       7.773       6.664       5.555       4.446       3.338       2.229       1.120      1.1089E-02
   8    9.991       8.882       7.773       6.664       5.555       4.446       3.338       2.229       1.120      1.1089E-02
   9    9.991       8.882       7.773       6.664       5.555       4.446       3.338       2.229       1.120      1.1089E-02
  10    9.991       8.882       7.773       6.664       5.555       4.446       3.338       2.229       1.120      1.1089E-02

 HEAD WILL BE SAVED ON UNIT   51 AT END OF TIME STEP  100, STRESS PERIOD    2
1
  VOLUMETRIC BUDGET FOR ENTIRE MODEL AT END OF TIME STEP  100, STRESS PERIOD   2
  ------------------------------------------------------------------------------

     CUMULATIVE VOLUMES      L**3       RATES FOR THIS TIME STEP      L**3/T
     ------------------                 ------------------------

           IN:                                      IN:
           ---                                      ---
             STORAGE =       24995.3750               STORAGE =           0.0000
       CONSTANT HEAD =           0.0000         CONSTANT HEAD =           0.0000
               WELLS =           0.0000                 WELLS =           0.0000
     HEAD DEP BOUNDS =      546975.6250       HEAD DEP BOUNDS =        5544.0171

            TOTAL IN =      571971.0000              TOTAL IN =        5544.0171

          OUT:                                     OUT:
          ----                                     ----
             STORAGE =           0.0000               STORAGE =           0.0000
       CONSTANT HEAD =           0.0000         CONSTANT HEAD =           0.0000
               WELLS =           0.0000                 WELLS =           0.0000
     HEAD DEP BOUNDS =      571992.9375       HEAD DEP BOUNDS =        5544.2617

           TOTAL OUT =      571992.9375             TOTAL OUT =        5544.2617

            IN - OUT =         -21.9375              IN - OUT =          -0.2446

 PERCENT DISCREPANCY =          -0.00     PERCENT DISCREPANCY =          -0.00






         TIME SUMMARY AT END OF TIME STEP  100 IN STRESS PERIOD    2
                    SECONDS     MINUTES      HOURS       DAYS        YEARS
                    -----------------------------------------------------------
   TIME STEP LENGTH  86400.      1440.0      24.000      1.0000     2.73785E-03
 STRESS PERIOD TIME 8.64000E+06 1.44000E+05  2400.0      100.00     0.27379    
         TOTAL TIME 8.72640E+06 1.45440E+05  2424.0      101.00     0.27652    
1
1
                            STRESS PERIOD NO.    3, LENGTH =   100.0000    
                            -----------------------------------------------

                              NUMBER OF TIME STEPS =   100

                               MULTIPLIER FOR DELT =     1.000

                            INITIAL TIME STEP SIZE =   1.000000    

 WELL NO.  LAYER   ROW   COL   STRESS RATE         
 --------------------------------------------------
      1      1      5      5      -100.0    

      1 WELL 

 REUSING NON-PARAMETER GHB CELLS FROM LAST STRESS PERIOD

     20 GHB CELLS

 SOLVING FOR HEAD 

 OUTPUT CONTROL FOR STRESS PERIOD    3   TIME STEP    1
    PRINT HEAD FOR ALL LAYERS
    SAVE HEAD FOR ALL LAYERS
    PRINT BUDGET
    SAVE BUDGET
1
              HEAD IN LAYER   1 AT END OF TIME STEP   1 IN STRESS PERIOD    3
  ---------------------------------------------------------------------------

            1           2           3           4           5           6           7           8           9          10
 ........................................................................................................................
   1    9.991       8.878       7.765       6.654       5.543       4.435       3.328       2.222       1.117      1.1056E-02
   2    9.991       8.877       7.764       6.651       5.540       4.432       3.327       2.221       1.116      1.1052E-02
   3    9.991       8.876       7.760       6.645       5.532       4.427       3.323       2.220       1.116      1.1046E-02
   4    9.991       8.874       7.756       6.635       5.514       4.417       3.319       2.218       1.115      1.1039E-02
   5    9.991       8.873       7.753       6.624       5.466       4.405       3.315       2.217       1.115      1.1035E-02
   6    9.991       8.874       7.756       6.636       5.514       4.417       3.319       2.218       1.115      1.1040E-02
   7    9.991       8.876       7.761       6.646       5.533       4.427       3.324       2.220       1.116      1.1048E-02
   8    9.991       8.878       7.765       6.652       5.542       4.434       3.328       2.222       1.117      1.1057E-02
   9    9.991       8.879       7.767       6.656       5.546       4.438       3.330       2.224       1.117      1.1063E-02
  10    9.991       8.879       7.768       6.658       5.548       4.439       3.332       2.225       1.118      1.1067E-02

 HEAD WILL BE SAVED ON UNIT   51 AT END OF TIME STEP    1, STRESS PERIOD    3
1
  VOLUMETRIC BUDGET FOR ENTIRE MODEL AT END OF TIME STEP    1, STRESS PERIOD   3
  ------------------------------------------------------------------------------

     CUMULATIVE VOLUMES      L**3       RATES FOR THIS TIME STEP      L**3/T
     ------------------                 ------------------------

           IN:                                      IN:
           ---                                      ---
             STORAGE =       25049.1562               STORAGE =          53.7806
       CONSTANT HEAD =           0.0000         CONSTANT HEAD =           0.0000
               WELLS =           0.0000                 WELLS =           0.0000
     HEAD DEP BOUNDS =      552546.8125       HEAD DEP BOUNDS =        5571.1914

            TOTAL IN =      577596.0000              TOTAL IN =        5624.9722

          OUT:                                     OUT:
          ----                                     ----
             STORAGE =           0.0000               STORAGE =           0.0000
       CONSTANT HEAD =           0.0000         CONSTANT HEAD =           0.0000
               WELLS =         100.0000                 WELLS =         100.0000
     HEAD DEP BOUNDS =      577518.1250       HEAD DEP BOUNDS =        5525.2168

           TOTAL OUT =      577618.1250             TOTAL OUT =        5625.2168

            IN - OUT =         -22.1250              IN - OUT =          -0.2446

 PERCENT DISCREPANCY =          -0.00     PERCENT DISCREPANCY =          -0.00






         TIME SUMMARY AT END OF TIME STEP    1 IN STRESS PERIOD    3
                    SECONDS     MINUTES      HOURS       DAYS        YEARS
                    -----------------------------------------------------------
   TIME STEP LENGTH  86400.      1440.0      24.000      1.0000     2.73785E-03
 STRESS PERIOD TIME  86400.      1440.0      24.000      1.0000     2.73785E-03
         TOTAL TIME 8.81280E+06 1.46880E+05  2448.0      102.00     0.27926    
1

 SOLVING FOR HEAD 

 OUTPUT CONTROL FOR STRESS PERIOD    3   TIME STEP    2
    PRINT HEAD FOR ALL LAYERS
    SAVE HEAD FOR ALL LAYERS
    PRINT BUDGET
    SAVE BUDGET
1
              HEAD IN LAYER   1 AT END OF TIME STEP   2 IN STRESS PERIOD    3
  ---------------------------------------------------------------------------

            1           2           3           4           5           6           7           8           9          10
 ........................................................................................................................
   1    9.991       8.875       7.760       6.646       5.535       4.427       3.322       2.218       1.114      1.1031E-02
   2    9.991       8.874       7.758       6.643       5.531       4.424       3.319       2.216       1.114      1.1026E-02
   3    9.991       8.872       7.754       6.636       5.522       4.417       3.315       2.214       1.113      1.1017E-02
   4    9.991       8.870       7.749       6.625       5.502       4.406       3.310       2.212       1.112      1.1008E-02
   5    9.991       8.869       7.745       6.612       5.453       4.393       3.306       2.211       1.111      1.1005E-02
   6    9.991       8.871       7.749       6.626       5.502       4.406       3.311       2.212       1.112      1.1010E-02
   7    9.991       8.873       7.755       6.638       5.523       4.418       3.317       2.215       1.113      1.1022E-02
   8    9.991       8.875       7.760       6.645       5.534       4.426       3.322       2.218       1.114      1.1034E-02
   9    9.991       8.876       7.763       6.650       5.539       4.431       3.325       2.220       1.115      1.1043E-02
  10    9.991       8.877       7.764       6.652       5.542       4.433       3.327       2.221       1.116      1.1048E-02

 HEAD WILL BE SAVED ON UNIT   51 AT END OF TIME STEP    2, STRESS PERIOD    3
1
  VOLUMETRIC BUDGET FOR ENTIRE MODEL AT END OF TIME STEP    2, STRESS PERIOD   3
  ------------------------------------------------------------------------------

     CUMULATIVE VOLUMES      L**3       RATES FOR THIS TIME STEP      L**3/T
     ------------------                 ------------------------

           IN:                                      IN:
           ---                                      ---
             STORAGE =       25074.5234               STORAGE =          25.3678
       CONSTANT HEAD =           0.0000         CONSTANT HEAD =           0.0000
               WELLS =           0.0000                 WELLS =           0.0000
     HEAD DEP BOUNDS =      558133.3750       HEAD DEP BOUNDS =        5586.5615

            TOTAL IN =      583207.8750              TOTAL IN =        5611.9292

          OUT:                                     OUT:
          ----                                     ----
             STORAGE =           0.0000               STORAGE =           0.0000
       CONSTANT HEAD =           0.0000         CONSTANT HEAD =           0.0000
               WELLS =         200.0000                 WELLS =         100.0000
     HEAD DEP BOUNDS =      583030.3125       HEAD DEP BOUNDS =        5512.1968

           TOTAL OUT =      583230.3125             TOTAL OUT =        5612.1968

            IN - OUT =         -22.4375              IN - OUT =          -0.2676

 PERCENT DISCREPANCY =          -0.00     PERCENT DISCREPANCY =          -0.00






         TIME SUMMARY AT END OF TIME STEP    2 IN STRESS PERIOD    3
                    SECONDS     MINUTES      HOURS       DAYS        YEARS
                    -----------------------------------------------------------
   TIME STEP LENGTH  86400.      1440.0      24.000      1.0000     2.73785E-03
 STRESS PERIOD TIME 1.72800E+05  2880.0      48.000      2.0000     5.47570E-03
         TOTAL TIME 8.89920E+06 1.48320E+05  2472.0      103.00     0.28200    
1

 SOLVING FOR HEAD 

 OUTPUT CONTROL FOR STRESS PERIOD    3   TIME STEP    3
    PRINT HEAD FOR ALL LAYERS
    SAVE HEAD FOR ALL LAYERS
    PRINT BUDGET
    SAVE BUDGET
1
              HEAD IN LAYER   1 AT END OF TIME STEP   3 IN STRESS PERIOD    3
  ---------------------------------------------------------------------------

            1           2           3           4           5           6           7           8           9          10
 ........................................................................................................................
   1    9.991       8.874       7.757       6.643       5.531       4.423       3.318       2.215       1.113      1.1017E-02
   2    9.991       8.873       7.755       6.639       5.527       4.420       3.316       2.214       1.112      1.1012E-02
   3    9.991       8.871       7.751       6.632       5.517       4.413       3.312       2.211       1.111      1.1003E-02
   4    9.991       8.869       7.746       6.621       5.497       4.401       3.306       2.209       1.110      1.0994E-02
   5    9.991       8.868       7.742       6.608       5.448       4.389       3.302       2.208       1.110      1.0990E-02
   6    9.991       8.869       7.746       6.622       5.498       4.402       3.307       2.210       1.111      1.0997E-02
   7    9.991       8.871       7.752       6.634       5.519       4.414       3.313       2.213       1.112      1.1009E-02
   8    9.991       8.874       7.757       6.642       5.530       4.423       3.318       2.216       1.113      1.1022E-02
   9    9.991       8.875       7.760       6.647       5.536       4.428       3.322       2.218       1.114      1.1031E-02
  10    9.991       8.876       7.762       6.649       5.539       4.430       3.324       2.219       1.115      1.1037E-02

 HEAD WILL BE SAVED ON UNIT   51 AT END OF TIME STEP    3, STRESS PERIOD    3
1
  VOLUMETRIC BUDGET FOR ENTIRE MODEL AT END OF TIME STEP    3, STRESS PERIOD   3
  ------------------------------------------------------------------------------

     CUMULATIVE VOLUMES      L**3       RATES FOR THIS TIME STEP      L**3/T
     ------------------                 ------------------------

           IN:                                      IN:
           ---                                      ---
             STORAGE =       25086.1406               STORAGE =          11.6172
       CONSTANT HEAD =           0.0000         CONSTANT HEAD =           0.0000
               WELLS =           0.0000                 WELLS =           0.0000
     HEAD DEP BOUNDS =      563727.0625       HEAD DEP BOUNDS =        5593.6704

            TOTAL IN =      588813.1875              TOTAL IN =        5605.2876

          OUT:                                     OUT:
          ----                                     ----
             STORAGE =           0.0000               STORAGE =           0.0000
       CONSTANT HEAD =           0.0000         CONSTANT HEAD =           0.0000
               WELLS =         300.0000                 WELLS =         100.0000
     HEAD DEP BOUNDS =      588535.8750       HEAD DEP BOUNDS =        5505.5679

           TOTAL OUT =      588835.8750             TOTAL OUT =        5605.5679

            IN - OUT =         -22.6875              IN - OUT =          -0.2803

 PERCENT DISCREPANCY =          -0.00     PERCENT DISCREPANCY =          -0.01






         TIME SUMMARY AT END OF TIME STEP    3 IN STRESS PERIOD    3
                    SECONDS     MINUTES      HOURS       DAYS        YEARS
                    -----------------------------------------------------------
   TIME STEP LENGTH  86400.      1440.0      24.000      1.0000     2.73785E-03
 STRESS PERIOD TIME 2.59200E+05  4320.0      72.000      3.0000     8.21355E-03
         TOTAL TIME 8.98560E+06 1.49760E+05  2496.0      104.00     0.28474    
1

 SOLVING FOR HEAD 

 OUTPUT CONTROL FOR STRESS PERIOD    3   TIME STEP    4
    PRINT HEAD FOR ALL LAYERS
    SAVE HEAD FOR ALL LAYERS
    PRINT BUDGET
    SAVE BUDGET
1
              HEAD IN LAYER   1 AT END OF TIME STEP   4 IN STRESS PERIOD    3
  ---------------------------------------------------------------------------

            1           2           3           4           5           6           7           8           9          10
 ........................................................................................................................
   1    9.991       8.873       7.756       6.641       5.529       4.421       3.316       2.214       1.112      1.1011E-02
   2    9.991       8.872       7.754       6.638       5.525       4.418       3.314       2.212       1.112      1.1006E-02
   3    9.991       8.870       7.750       6.631       5.515       4.411       3.310       2.210       1.111      1.0996E-02
   4    9.991       8.868       7.745       6.619       5.495       4.399       3.304       2.208       1.110      1.0987E-02
   5    9.991       8.867       7.741       6.607       5.446       4.387       3.301       2.207       1.109      1.0984E-02
   6    9.991       8.868       7.745       6.620       5.496       4.400       3.305       2.208       1.110      1.0990E-02
   7    9.991       8.871       7.751       6.632       5.517       4.413       3.312       2.211       1.111      1.1003E-02
   8    9.991       8.873       7.756       6.641       5.528       4.421       3.317       2.214       1.113      1.1016E-02
   9    9.991       8.875       7.759       6.646       5.534       4.426       3.321       2.217       1.114      1.1026E-02
  10    9.991       8.875       7.761       6.648       5.537       4.429       3.322       2.218       1.114      1.1031E-02

 HEAD WILL BE SAVED ON UNIT   51 AT END OF TIME STEP    4, STRESS PERIOD    3
1
  VOLUMETRIC BUDGET FOR ENTIRE MODEL AT END OF TIME STEP    4, STRESS PERIOD   3
  ------------------------------------------------------------------------------

     CUMULATIVE VOLUMES      L**3       RATES FOR THIS TIME STEP      L**3/T
     ------------------                 ------------------------

           IN:                                      IN:
           ---                                      ---
             STORAGE =       25091.4277               STORAGE =           5.2861
       CONSTANT HEAD =           0.0000         CONSTANT HEAD =           0.0000
               WELLS =           0.0000                 WELLS =           0.0000
     HEAD DEP BOUNDS =      569323.9375       HEAD DEP BOUNDS =        5596.8760

            TOTAL IN =      594415.3750              TOTAL IN =        5602.1621

          OUT:                                     OUT:
          ----                                     ----
             STORAGE =           0.0000               STORAGE =           0.0000
       CONSTANT HEAD =           0.0000         CONSTANT HEAD =           0.0000
               WELLS =         400.0000                 WELLS =         100.0000
     HEAD DEP BOUNDS =      594038.3125       HEAD DEP BOUNDS =        5502.4487

           TOTAL OUT =      594438.3125             TOTAL OUT =        5602.4487

            IN - OUT =         -22.9375              IN - OUT =          -0.2866

 PERCENT DISCREPANCY =          -0.00     PERCENT DISCREPANCY =          -0.01






         TIME SUMMARY AT END OF TIME STEP    4 IN STRESS PERIOD    3
                    SECONDS     MINUTES      HOURS       DAYS        YEARS
                    -----------------------------------------------------------
   TIME STEP LENGTH  86400.      1440.0      24.000      1.0000     2.73785E-03
 STRESS PERIOD TIME 3.45600E+05  5760.0      96.000      4.0000     1.09514E-02
         TOTAL TIME 9.07200E+06 1.51200E+05  2520.0      105.00     0.28747    
1

 SOLVING FOR HEAD 

 OUTPUT CONTROL FOR STRESS PERIOD    3   TIME STEP    5
    PRINT HEAD FOR ALL LAYERS
    SAVE HEAD FOR ALL LAYERS
    PRINT BUDGET
    SAVE BUDGET
1
              HEAD IN LAYER   1 AT END OF TIME STEP   5 IN STRESS PERIOD    3
  ---------------------------------------------------------------------------

            1           2           3           4           5           6           7           8           9          10
 ........................................................................................................................
   1    9.991       8.873       7.755       6.640       5.528       4.420       3.316       2.213       1.112      1.1008E-02
   2    9.991       8.872       7.753       6.637       5.524       4.417       3.313       2.212       1.111      1.1003E-02
   3    9.991       8.870       7.749       6.630       5.514       4.410       3.309       2.210       1.110      1.0993E-02
   4    9.991       8.868       7.744       6.618       5.494       4.398       3.304       2.207       1.109      1.0984E-02
   5    9.991       8.867       7.740       6.606       5.445       4.386       3.300       2.206       1.109      1.0981E-02
   6    9.991       8.868       7.745       6.619       5.495       4.399       3.305       2.208       1.110      1.0987E-02
   7    9.991       8.871       7.751       6.632       5.517       4.412       3.311       2.211       1.111      1.1000E-02
   8    9.991       8.873       7.756       6.640       5.528       4.420       3.316       2.214       1.112      1.1013E-02
   9    9.991       8.874       7.759       6.645       5.534       4.425       3.320       2.216       1.113      1.1023E-02
  10    9.991       8.875       7.760       6.647       5.536       4.428       3.322       2.217       1.114      1.1028E-02

 HEAD WILL BE SAVED ON UNIT   51 AT END OF TIME STEP    5, STRESS PERIOD    3
1
  VOLUMETRIC BUDGET FOR ENTIRE MODEL AT END OF TIME STEP    5, STRESS PERIOD   3
  ------------------------------------------------------------------------------

     CUMULATIVE VOLUMES      L**3       RATES FOR THIS TIME STEP      L**3/T
     ------------------                 ------------------------

           IN:                                      IN:
           ---                                      ---
             STORAGE =       25093.8301               STORAGE =           2.4019
       CONSTANT HEAD =           0.0000         CONSTANT HEAD =           0.0000
               WELLS =           0.0000                 WELLS =           0.0000
     HEAD DEP BOUNDS =      574922.2500       HEAD DEP BOUNDS =        5598.3237

            TOTAL IN =      600016.0625              TOTAL IN =        5600.7256

          OUT:                                     OUT:
          ----                                     ----
             STORAGE =           0.0000               STORAGE =           0.0000
       CONSTANT HEAD =           0.0000         CONSTANT HEAD =           0.0000
               WELLS =         500.0000                 WELLS =         100.0000
     HEAD DEP BOUNDS =      599539.3125       HEAD DEP BOUNDS =        5501.0146

           TOTAL OUT =      600039.3125             TOTAL OUT =        5601.0146

            IN - OUT =         -23.2500              IN - OUT =          -0.2891

 PERCENT DISCREPANCY =          -0.00     PERCENT DISCREPANCY =          -0.01






         TIME SUMMARY AT END OF TIME STEP    5 IN STRESS PERIOD    3
                    SECONDS     MINUTES      HOURS       DAYS        YEARS
                    -----------------------------------------------------------
   TIME STEP LENGTH  86400.      1440.0      24.000      1.0000     2.73785E-03
 STRESS PERIOD TIME 4.32000E+05  7200.0      120.00      5.0000     1.36893E-02
         TOTAL TIME 9.15840E+06 1.52640E+05  2544.0      106.00     0.29021    
1

 SOLVING FOR HEAD 

 OUTPUT CONTROL FOR STRESS PERIOD    3   TIME STEP    6
    PRINT HEAD FOR ALL LAYERS
    SAVE HEAD FOR ALL LAYERS
    PRINT BUDGET
    SAVE BUDGET
1
              HEAD IN LAYER   1 AT END OF TIME STEP   6 IN STRESS PERIOD    3
  ---------------------------------------------------------------------------

            1           2           3           4           5           6           7           8           9          10
 ........................................................................................................................
   1    9.991       8.872       7.755       6.640       5.528       4.420       3.315       2.213       1.112      1.1007E-02
   2    9.991       8.871       7.753       6.637       5.524       4.417       3.313       2.212       1.111      1.1001E-02
   3    9.991       8.870       7.749       6.629       5.514       4.409       3.309       2.209       1.110      1.0992E-02
   4    9.991       8.868       7.744       6.618       5.494       4.398       3.303       2.207       1.109      1.0983E-02
   5    9.991       8.867       7.740       6.605       5.445       4.385       3.300       2.206       1.109      1.0979E-02
   6    9.991       8.868       7.744       6.619       5.495       4.399       3.304       2.208       1.110      1.0986E-02
   7    9.991       8.870       7.750       6.631       5.516       4.411       3.311       2.211       1.111      1.0999E-02
   8    9.991       8.873       7.755       6.640       5.527       4.420       3.316       2.214       1.112      1.1012E-02
   9    9.991       8.874       7.759       6.645       5.533       4.425       3.320       2.216       1.113      1.1022E-02
  10    9.991       8.875       7.760       6.647       5.536       4.427       3.321       2.217       1.114      1.1027E-02

 HEAD WILL BE SAVED ON UNIT   51 AT END OF TIME STEP    6, STRESS PERIOD    3
1
  VOLUMETRIC BUDGET FOR ENTIRE MODEL AT END OF TIME STEP    6, STRESS PERIOD   3
  ------------------------------------------------------------------------------

     CUMULATIVE VOLUMES      L**3       RATES FOR THIS TIME STEP      L**3/T
     ------------------                 ------------------------

           IN:                                      IN:
           ---                                      ---
             STORAGE =       25094.9219               STORAGE =           1.0912
       CONSTANT HEAD =           0.0000         CONSTANT HEAD =           0.0000
               WELLS =           0.0000                 WELLS =           0.0000
     HEAD DEP BOUNDS =      580521.2500       HEAD DEP BOUNDS =        5598.9795

            TOTAL IN =      605616.1875              TOTAL IN =        5600.0708

          OUT:                                     OUT:
          ----                                     ----
             STORAGE =           0.0000               STORAGE =           0.0000
       CONSTANT HEAD =           0.0000         CONSTANT HEAD =           0.0000
               WELLS =         600.0000                 WELLS =         100.0000
     HEAD DEP BOUNDS =      605039.6875       HEAD DEP BOUNDS =        5500.3608

           TOTAL OUT =      605639.6875             TOTAL OUT =        5600.3608

            IN - OUT =         -23.5000              IN - OUT =          -0.2900

 PERCENT DISCREPANCY =          -0.00     PERCENT DISCREPANCY =          -0.01






         TIME SUMMARY AT END OF TIME STEP    6 IN STRESS PERIOD    3
                    SECONDS     MINUTES      HOURS       DAYS        YEARS
                    -----------------------------------------------------------
   TIME STEP LENGTH  86400.      1440.0      24.000      1.0000     2.73785E-03
 STRESS PERIOD TIME 5.18400E+05  8640.0      144.00      6.0000     1.64271E-02
         TOTAL TIME 9.24480E+06 1.54080E+05  2568.0      107.00     0.29295    
1

 SOLVING FOR HEAD 

 OUTPUT CONTROL FOR STRESS PERIOD    3   TIME STEP    7
    PRINT HEAD FOR ALL LAYERS
    SAVE HEAD FOR ALL LAYERS
    PRINT BUDGET
    SAVE BUDGET
1
              HEAD IN LAYER   1 AT END OF TIME STEP   7 IN STRESS PERIOD    3
  ---------------------------------------------------------------------------

            1           2           3           4           5           6           7           8           9          10
 ........................................................................................................................
   1    9.991       8.872       7.755       6.640       5.528       4.420       3.315       2.213       1.112      1.1006E-02
   2    9.991       8.871       7.753       6.636       5.524       4.416       3.313       2.212       1.111      1.1001E-02
   3    9.991       8.870       7.749       6.629       5.514       4.409       3.309       2.209       1.110      1.0991E-02
   4    9.991       8.868       7.744       6.618       5.494       4.398       3.303       2.207       1.109      1.0982E-02
   5    9.991       8.867       7.740       6.605       5.445       4.385       3.300       2.206       1.109      1.0979E-02
   6    9.991       8.868       7.744       6.619       5.495       4.399       3.304       2.207       1.110      1.0985E-02
   7    9.991       8.870       7.750       6.631       5.516       4.411       3.310       2.211       1.111      1.0998E-02
   8    9.991       8.873       7.755       6.639       5.527       4.420       3.316       2.214       1.112      1.1011E-02
   9    9.991       8.874       7.758       6.644       5.533       4.425       3.319       2.216       1.113      1.1021E-02
  10    9.991       8.875       7.760       6.647       5.536       4.427       3.321       2.217       1.114      1.1026E-02

 HEAD WILL BE SAVED ON UNIT   51 AT END OF TIME STEP    7, STRESS PERIOD    3
1
  VOLUMETRIC BUDGET FOR ENTIRE MODEL AT END OF TIME STEP    7, STRESS PERIOD   3
  ------------------------------------------------------------------------------

     CUMULATIVE VOLUMES      L**3       RATES FOR THIS TIME STEP      L**3/T
     ------------------                 ------------------------

           IN:                                      IN:
           ---                                      ---
             STORAGE =       25095.4180               STORAGE =           0.4957
       CONSTANT HEAD =           0.0000         CONSTANT HEAD =           0.0000
               WELLS =           0.0000                 WELLS =           0.0000
     HEAD DEP BOUNDS =      586120.5000       HEAD DEP BOUNDS =        5599.2769

            TOTAL IN =      611215.9375              TOTAL IN =        5599.7725

          OUT:                                     OUT:
          ----                                     ----
             STORAGE =           0.0000               STORAGE =           0.0000
       CONSTANT HEAD =           0.0000         CONSTANT HEAD =           0.0000
               WELLS =         700.0000                 WELLS =         100.0000
     HEAD DEP BOUNDS =      610539.7500       HEAD DEP BOUNDS =        5500.0635

           TOTAL OUT =      611239.7500             TOTAL OUT =        5600.0635

            IN - OUT =         -23.8125              IN - OUT =          -0.2910

 PERCENT DISCREPANCY =          -0.00     PERCENT DISCREPANCY =          -0.01






         TIME SUMMARY AT END OF TIME STEP    7 IN STRESS PERIOD    3
                    SECONDS     MINUTES      HOURS       DAYS        YEARS
                    -----------------------------------------------------------
   TIME STEP LENGTH  86400.      1440.0      24.000      1.0000     2.73785E-03
 STRESS PERIOD TIME 6.04800E+05  10080.      168.00      7.0000     1.91650E-02
         TOTAL TIME 9.33120E+06 1.55520E+05  2592.0      108.00     0.29569    
1

 SOLVING FOR HEAD 

 OUTPUT CONTROL FOR STRESS PERIOD    3   TIME STEP    8
    PRINT HEAD FOR ALL LAYERS
    SAVE HEAD FOR ALL LAYERS
    PRINT BUDGET
    SAVE BUDGET
1
              HEAD IN LAYER   1 AT END OF TIME STEP   8 IN STRESS PERIOD    3
  ---------------------------------------------------------------------------

            1           2           3           4           5           6           7           8           9          10
 ........................................................................................................................
   1    9.991       8.872       7.755       6.640       5.528       4.420       3.315       2.213       1.112      1.1006E-02
   2    9.991       8.871       7.753       6.636       5.523       4.416       3.313       2.211       1.111      1.1000E-02
   3    9.991       8.870       7.749       6.629       5.514       4.409       3.309       2.209       1.110      1.0991E-02
   4    9.991       8.868       7.744       6.618       5.494       4.398       3.303       2.207       1.109      1.0982E-02
   5    9.991       8.866       7.740       6.605       5.445       4.385       3.299       2.206       1.109      1.0978E-02
   6    9.991       8.868       7.744       6.619       5.494       4.399       3.304       2.207       1.109      1.0985E-02
   7    9.991       8.870       7.750       6.631       5.516       4.411       3.310       2.210       1.111      1.0998E-02
   8    9.991       8.873       7.755       6.639       5.527       4.420       3.316       2.213       1.112      1.1011E-02
   9    9.991       8.874       7.758       6.644       5.533       4.425       3.319       2.216       1.113      1.1021E-02
  10    9.991       8.875       7.760       6.647       5.536       4.427       3.321       2.217       1.114      1.1026E-02

 HEAD WILL BE SAVED ON UNIT   51 AT END OF TIME STEP    8, STRESS PERIOD    3
1
  VOLUMETRIC BUDGET FOR ENTIRE MODEL AT END OF TIME STEP    8, STRESS PERIOD   3
  ------------------------------------------------------------------------------

     CUMULATIVE VOLUMES      L**3       RATES FOR THIS TIME STEP      L**3/T
     ------------------                 ------------------------

           IN:                                      IN:
           ---                                      ---
             STORAGE =       25095.6426               STORAGE =           0.2251
       CONSTANT HEAD =           0.0000         CONSTANT HEAD =           0.0000
               WELLS =           0.0000                 WELLS =           0.0000
     HEAD DEP BOUNDS =      591719.9375       HEAD DEP BOUNDS =        5599.4116

            TOTAL IN =      616815.5625              TOTAL IN =        5599.6367

          OUT:                                     OUT:
          ----                                     ----
             STORAGE =           0.0000               STORAGE =           0.0000
       CONSTANT HEAD =           0.0000         CONSTANT HEAD =           0.0000
               WELLS =         800.0000                 WELLS =         100.0000
     HEAD DEP BOUNDS =      616039.6875       HEAD DEP BOUNDS =        5499.9282

           TOTAL OUT =      616839.6875             TOTAL OUT =        5599.9282

            IN - OUT =         -24.1250              IN - OUT =          -0.2915

 PERCENT DISCREPANCY =          -0.00     PERCENT DISCREPANCY =          -0.01






         TIME SUMMARY AT END OF TIME STEP    8 IN STRESS PERIOD    3
                    SECONDS     MINUTES      HOURS       DAYS        YEARS
                    -----------------------------------------------------------
   TIME STEP LENGTH  86400.      1440.0      24.000      1.0000     2.73785E-03
 STRESS PERIOD TIME 6.91200E+05  11520.      192.00      8.0000     2.19028E-02
         TOTAL TIME 9.41760E+06 1.56960E+05  2616.0      109.00     0.29843    
1

 SOLVING FOR HEAD 

 OUTPUT CONTROL FOR STRESS PERIOD    3   TIME STEP    9
    PRINT HEAD FOR ALL LAYERS
    SAVE HEAD FOR ALL LAYERS
    PRINT BUDGET
    SAVE BUDGET
1
              HEAD IN LAYER   1 AT END OF TIME STEP   9 IN STRESS PERIOD    3
  ---------------------------------------------------------------------------

            1           2           3           4           5           6           7           8           9          10
 ........................................................................................................................
   1    9.991       8.872       7.755       6.640       5.528       4.420       3.315       2.213       1.112      1.1006E-02
   2    9.991       8.871       7.753       6.636       5.523       4.416       3.313       2.211       1.111      1.1000E-02
   3    9.991       8.870       7.749       6.629       5.514       4.409       3.309       2.209       1.110      1.0991E-02
   4    9.991       8.868       7.744       6.618       5.493       4.398       3.303       2.207       1.109      1.0982E-02
   5    9.991       8.866       7.740       6.605       5.445       4.385       3.299       2.206       1.109      1.0978E-02
   6    9.991       8.868       7.744       6.619       5.494       4.399       3.304       2.207       1.109      1.0985E-02
   7    9.991       8.870       7.750       6.631       5.516       4.411       3.310       2.210       1.111      1.0998E-02
   8    9.991       8.873       7.755       6.639       5.527       4.420       3.316       2.213       1.112      1.1011E-02
   9    9.991       8.874       7.758       6.644       5.533       4.425       3.319       2.216       1.113      1.1021E-02
  10    9.991       8.875       7.760       6.647       5.536       4.427       3.321       2.217       1.114      1.1026E-02

 HEAD WILL BE SAVED ON UNIT   51 AT END OF TIME STEP    9, STRESS PERIOD    3
1
  VOLUMETRIC BUDGET FOR ENTIRE MODEL AT END OF TIME STEP    9, STRESS PERIOD   3
  ------------------------------------------------------------------------------

     CUMULATIVE VOLUMES      L**3       RATES FOR THIS TIME STEP      L**3/T
     ------------------                 ------------------------

           IN:                                      IN:
           ---                                      ---
             STORAGE =       25095.7441               STORAGE =           0.1023
       CONSTANT HEAD =           0.0000         CONSTANT HEAD =           0.0000
               WELLS =           0.0000                 WELLS =           0.0000
     HEAD DEP BOUNDS =      597319.4375       HEAD DEP BOUNDS =        5599.4731

            TOTAL IN =      622415.1875              TOTAL IN =        5599.5757

          OUT:                                     OUT:
          ----                                     ----
             STORAGE =           0.0000               STORAGE =           0.0000
       CONSTANT HEAD =           0.0000         CONSTANT HEAD =           0.0000
               WELLS =         900.0000                 WELLS =         100.0000
     HEAD DEP BOUNDS =      621539.5625       HEAD DEP BOUNDS =        5499.8667

           TOTAL OUT =      622439.5625             TOTAL OUT =        5599.8667

            IN - OUT =         -24.3750              IN - OUT =          -0.2910

 PERCENT DISCREPANCY =          -0.00     PERCENT DISCREPANCY =          -0.01






         TIME SUMMARY AT END OF TIME STEP    9 IN STRESS PERIOD    3
                    SECONDS     MINUTES      HOURS       DAYS        YEARS
                    -----------------------------------------------------------
   TIME STEP LENGTH  86400.      1440.0      24.000      1.0000     2.73785E-03
 STRESS PERIOD TIME 7.77600E+05  12960.      216.00      9.0000     2.46407E-02
         TOTAL TIME 9.50400E+06 1.58400E+05  2640.0      110.00     0.30116    
1

 SOLVING FOR HEAD 

 OUTPUT CONTROL FOR STRESS PERIOD    3   TIME STEP   10
    PRINT HEAD FOR ALL LAYERS
    SAVE HEAD FOR ALL LAYERS
    PRINT BUDGET
    SAVE BUDGET
1
              HEAD IN LAYER   1 AT END OF TIME STEP  10 IN STRESS PERIOD    3
  ---------------------------------------------------------------------------

            1           2           3           4           5           6           7           8           9          10
 ........................................................................................................................
   1    9.991       8.872       7.755       6.640       5.528       4.420       3.315       2.213       1.112      1.1006E-02
   2    9.991       8.871       7.753       6.636       5.523       4.416       3.313       2.211       1.111      1.1000E-02
   3    9.991       8.870       7.749       6.629       5.514       4.409       3.309       2.209       1.110      1.0991E-02
   4    9.991       8.868       7.743       6.618       5.493       4.398       3.303       2.207       1.109      1.0982E-02
   5    9.991       8.866       7.740       6.605       5.445       4.385       3.299       2.206       1.109      1.0978E-02
   6    9.991       8.868       7.744       6.619       5.494       4.399       3.304       2.207       1.109      1.0985E-02
   7    9.991       8.870       7.750       6.631       5.516       4.411       3.310       2.210       1.111      1.0998E-02
   8    9.991       8.873       7.755       6.639       5.527       4.420       3.316       2.213       1.112      1.1011E-02
   9    9.991       8.874       7.758       6.644       5.533       4.425       3.319       2.216       1.113      1.1021E-02
  10    9.991       8.875       7.760       6.647       5.535       4.427       3.321       2.217       1.114      1.1026E-02

 HEAD WILL BE SAVED ON UNIT   51 AT END OF TIME STEP   10, STRESS PERIOD    3
1
  VOLUMETRIC BUDGET FOR ENTIRE MODEL AT END OF TIME STEP   10, STRESS PERIOD   3
  ------------------------------------------------------------------------------

     CUMULATIVE VOLUMES      L**3       RATES FOR THIS TIME STEP      L**3/T
     ------------------                 ------------------------

           IN:                                      IN:
           ---                                      ---
             STORAGE =       25095.7910               STORAGE =       4.6426E-02
       CONSTANT HEAD =           0.0000         CONSTANT HEAD =           0.0000
               WELLS =           0.0000                 WELLS =           0.0000
     HEAD DEP BOUNDS =      602918.9375       HEAD DEP BOUNDS =        5599.5010

            TOTAL IN =      628014.7500              TOTAL IN =        5599.5474

          OUT:                                     OUT:
          ----                                     ----
             STORAGE =           0.0000               STORAGE =           0.0000
       CONSTANT HEAD =           0.0000         CONSTANT HEAD =           0.0000
               WELLS =        1000.0000                 WELLS =         100.0000
     HEAD DEP BOUNDS =      627039.3750       HEAD DEP BOUNDS =        5499.8389

           TOTAL OUT =      628039.3750             TOTAL OUT =        5599.8389

            IN - OUT =         -24.6250              IN - OUT =          -0.2915

 PERCENT DISCREPANCY =          -0.00     PERCENT DISCREPANCY =          -0.01






         TIME SUMMARY AT END OF TIME STEP   10 IN STRESS PERIOD    3
                    SECONDS     MINUTES      HOURS       DAYS        YEARS
                    -----------------------------------------------------------
   TIME STEP LENGTH  86400.      1440.0      24.000      1.0000     2.73785E-03
 STRESS PERIOD TIME 8.64000E+05  14400.      240.00      10.000     2.73785E-02
         TOTAL TIME 9.59040E+06 1.59840E+05  2664.0      111.00     0.30390    
1

 SOLVING FOR HEAD 

 OUTPUT CONTROL FOR STRESS PERIOD    3   TIME STEP   11
    PRINT HEAD FOR ALL LAYERS
    SAVE HEAD FOR ALL LAYERS
    PRINT BUDGET
    SAVE BUDGET
1
              HEAD IN LAYER   1 AT END OF TIME STEP  11 IN STRESS PERIOD    3
  ---------------------------------------------------------------------------

            1           2           3           4           5           6           7           8           9          10
 ........................................................................................................................
   1    9.991       8.872       7.755       6.640       5.528       4.420       3.315       2.213       1.112      1.1006E-02
   2    9.991       8.871       7.753       6.636       5.523       4.416       3.313       2.211       1.111      1.1000E-02
   3    9.991       8.870       7.749       6.629       5.514       4.409       3.309       2.209       1.110      1.0991E-02
   4    9.991       8.868       7.743       6.618       5.493       4.398       3.303       2.207       1.109      1.0982E-02
   5    9.991       8.866       7.740       6.605       5.445       4.385       3.299       2.206       1.109      1.0978E-02
   6    9.991       8.868       7.744       6.619       5.494       4.399       3.304       2.207       1.109      1.0985E-02
   7    9.991       8.870       7.750       6.631       5.516       4.411       3.310       2.210       1.111      1.0998E-02
   8    9.991       8.873       7.755       6.639       5.527       4.420       3.316       2.213       1.112      1.1011E-02
   9    9.991       8.874       7.758       6.644       5.533       4.425       3.319       2.216       1.113      1.1021E-02
  10    9.991       8.875       7.760       6.647       5.535       4.427       3.321       2.217       1.114      1.1026E-02

 HEAD WILL BE SAVED ON UNIT   51 AT END OF TIME STEP   11, STRESS PERIOD    3
1
  VOLUMETRIC BUDGET FOR ENTIRE MODEL AT END OF TIME STEP   11, STRESS PERIOD   3
  ------------------------------------------------------------------------------

     CUMULATIVE VOLUMES      L**3       RATES FOR THIS TIME STEP      L**3/T
     ------------------                 ------------------------

           IN:                                      IN:
           ---                                      ---
             STORAGE =       25095.8125               STORAGE =       2.1173E-02
       CONSTANT HEAD =           0.0000         CONSTANT HEAD =           0.0000
               WELLS =           0.0000                 WELLS =           0.0000
     HEAD DEP BOUNDS =      608518.4375       HEAD DEP BOUNDS =        5599.5137

            TOTAL IN =      633614.2500              TOTAL IN =        5599.5347

          OUT:                                     OUT:
          ----                                     ----
             STORAGE =           0.0000               STORAGE =           0.0000
       CONSTANT HEAD =           0.0000         CONSTANT HEAD =           0.0000
               WELLS =        1100.0000                 WELLS =         100.0000
     HEAD DEP BOUNDS =      632539.1875       HEAD DEP BOUNDS =        5499.8262

           TOTAL OUT =      633639.1875             TOTAL OUT =        5599.8262

            IN - OUT =         -24.9375              IN - OUT =          -0.2915

 PERCENT DISCREPANCY =          -0.00     PERCENT DISCREPANCY =          -0.01






         TIME SUMMARY AT END OF TIME STEP   11 IN STRESS PERIOD    3
                    SECONDS     MINUTES      HOURS       DAYS        YEARS
                    -----------------------------------------------------------
   TIME STEP LENGTH  86400.      1440.0      24.000      1.0000     2.73785E-03
 STRESS PERIOD TIME 9.50400E+05  15840.      264.00      11.000     3.01164E-02
         TOTAL TIME 9.67680E+06 1.61280E+05  2688.0      112.00     0.30664    
1

 SOLVING FOR HEAD 

 OUTPUT CONTROL FOR STRESS PERIOD    3   TIME STEP   12
    PRINT HEAD FOR ALL LAYERS
    SAVE HEAD FOR ALL LAYERS
    PRINT BUDGET
    SAVE BUDGET
1
              HEAD IN LAYER   1 AT END OF TIME STEP  12 IN STRESS PERIOD    3
  ---------------------------------------------------------------------------

            1           2           3           4           5           6           7           8           9          10
 ........................................................................................................................
   1    9.991       8.872       7.755       6.640       5.528       4.420       3.315       2.213       1.112      1.1006E-02
   2    9.991       8.871       7.753       6.636       5.523       4.416       3.313       2.211       1.111      1.1000E-02
   3    9.991       8.870       7.749       6.629       5.514       4.409       3.309       2.209       1.110      1.0991E-02
   4    9.991       8.868       7.743       6.618       5.493       4.398       3.303       2.207       1.109      1.0982E-02
   5    9.991       8.866       7.740       6.605       5.445       4.385       3.299       2.206       1.109      1.0978E-02
   6    9.991       8.868       7.744       6.619       5.494       4.399       3.304       2.207       1.109      1.0985E-02
   7    9.991       8.870       7.750       6.631       5.516       4.411       3.310       2.210       1.111      1.0998E-02
   8    9.991       8.873       7.755       6.639       5.527       4.420       3.316       2.213       1.112      1.1011E-02
   9    9.991       8.874       7.758       6.644       5.533       4.425       3.319       2.216       1.113      1.1021E-02
  10    9.991       8.875       7.760       6.647       5.535       4.427       3.321       2.217       1.114      1.1026E-02

 HEAD WILL BE SAVED ON UNIT   51 AT END OF TIME STEP   12, STRESS PERIOD    3
1
  VOLUMETRIC BUDGET FOR ENTIRE MODEL AT END OF TIME STEP   12, STRESS PERIOD   3
  ------------------------------------------------------------------------------

     CUMULATIVE VOLUMES      L**3       RATES FOR THIS TIME STEP      L**3/T
     ------------------                 ------------------------

           IN:                                      IN:
           ---                                      ---
             STORAGE =       25095.8223               STORAGE =       9.5272E-03
       CONSTANT HEAD =           0.0000         CONSTANT HEAD =           0.0000
               WELLS =           0.0000                 WELLS =           0.0000
     HEAD DEP BOUNDS =      614117.9375       HEAD DEP BOUNDS =        5599.5195

            TOTAL IN =      639213.7500              TOTAL IN =        5599.5293

          OUT:                                     OUT:
          ----                                     ----
             STORAGE =           0.0000               STORAGE =           0.0000
       CONSTANT HEAD =           0.0000         CONSTANT HEAD =           0.0000
               WELLS =        1200.0000                 WELLS =         100.0000
     HEAD DEP BOUNDS =      638039.0000       HEAD DEP BOUNDS =        5499.8203

           TOTAL OUT =      639239.0000             TOTAL OUT =        5599.8203

            IN - OUT =         -25.2500              IN - OUT =          -0.2910

 PERCENT DISCREPANCY =          -0.00     PERCENT DISCREPANCY =          -0.01






         TIME SUMMARY AT END OF TIME STEP   12 IN STRESS PERIOD    3
                    SECONDS     MINUTES      HOURS       DAYS        YEARS
                    -----------------------------------------------------------
   TIME STEP LENGTH  86400.      1440.0      24.000      1.0000     2.73785E-03
 STRESS PERIOD TIME 1.03680E+06  17280.      288.00      12.000     3.28542E-02
         TOTAL TIME 9.76320E+06 1.62720E+05  2712.0      113.00     0.30938    
1

 SOLVING FOR HEAD 

 OUTPUT CONTROL FOR STRESS PERIOD    3   TIME STEP   13
    PRINT HEAD FOR ALL LAYERS
    SAVE HEAD FOR ALL LAYERS
    PRINT BUDGET
    SAVE BUDGET
1
              HEAD IN LAYER   1 AT END OF TIME STEP  13 IN STRESS PERIOD    3
  ---------------------------------------------------------------------------

            1           2           3           4           5           6           7           8           9          10
 ........................................................................................................................
   1    9.991       8.872       7.755       6.640       5.528       4.420       3.315       2.213       1.112      1.1006E-02
   2    9.991       8.871       7.753       6.636       5.523       4.416       3.313       2.211       1.111      1.1000E-02
   3    9.991       8.870       7.749       6.629       5.514       4.409       3.309       2.209       1.110      1.0991E-02
   4    9.991       8.868       7.743       6.618       5.493       4.398       3.303       2.207       1.109      1.0982E-02
   5    9.991       8.866       7.740       6.605       5.445       4.385       3.299       2.206       1.109      1.0978E-02
   6    9.991       8.868       7.744       6.619       5.494       4.399       3.304       2.207       1.109      1.0985E-02
   7    9.991       8.870       7.750       6.631       5.516       4.411       3.310       2.210       1.111      1.0998E-02
   8    9.991       8.873       7.755       6.639       5.527       4.420       3.316       2.213       1.112      1.1011E-02
   9    9.991       8.874       7.758       6.644       5.533       4.425       3.319       2.216       1.113      1.1021E-02
  10    9.991       8.875       7.760       6.647       5.535       4.427       3.321       2.217       1.114      1.1026E-02

 HEAD WILL BE SAVED ON UNIT   51 AT END OF TIME STEP   13, STRESS PERIOD    3
1
  VOLUMETRIC BUDGET FOR ENTIRE MODEL AT END OF TIME STEP   13, STRESS PERIOD   3
  ------------------------------------------------------------------------------

     CUMULATIVE VOLUMES      L**3       RATES FOR THIS TIME STEP      L**3/T
     ------------------                 ------------------------

           IN:                                      IN:
           ---                                      ---
             STORAGE =       25095.8262               STORAGE =       4.4544E-03
       CONSTANT HEAD =           0.0000         CONSTANT HEAD =           0.0000
               WELLS =           0.0000                 WELLS =           0.0000
     HEAD DEP BOUNDS =      619717.4375       HEAD DEP BOUNDS =        5599.5220

            TOTAL IN =      644813.2500              TOTAL IN =        5599.5264

          OUT:                                     OUT:
          ----                                     ----
             STORAGE =           0.0000               STORAGE =           0.0000
       CONSTANT HEAD =           0.0000         CONSTANT HEAD =           0.0000
               WELLS =        1300.0000                 WELLS =         100.0000
     HEAD DEP BOUNDS =      643538.8125       HEAD DEP BOUNDS =        5499.8179

           TOTAL OUT =      644838.8125             TOTAL OUT =        5599.8179

            IN - OUT =         -25.5625              IN - OUT =          -0.2915

 PERCENT DISCREPANCY =          -0.00     PERCENT DISCREPANCY =          -0.01






         TIME SUMMARY AT END OF TIME STEP   13 IN STRESS PERIOD    3
                    SECONDS     MINUTES      HOURS       DAYS        YEARS
                    -----------------------------------------------------------
   TIME STEP LENGTH  86400.      1440.0      24.000      1.0000     2.73785E-03
 STRESS PERIOD TIME 1.12320E+06  18720.      312.00      13.000     3.55921E-02
         TOTAL TIME 9.84960E+06 1.64160E+05  2736.0      114.00     0.31211    
1

 SOLVING FOR HEAD 

 OUTPUT CONTROL FOR STRESS PERIOD    3   TIME STEP   14
    PRINT HEAD FOR ALL LAYERS
    SAVE HEAD FOR ALL LAYERS
    PRINT BUDGET
    SAVE BUDGET
1
              HEAD IN LAYER   1 AT END OF TIME STEP  14 IN STRESS PERIOD    3
  ---------------------------------------------------------------------------

            1           2           3           4           5           6           7           8           9          10
 ........................................................................................................................
   1    9.991       8.872       7.755       6.640       5.528       4.420       3.315       2.213       1.112      1.1006E-02
   2    9.991       8.871       7.753       6.636       5.523       4.416       3.313       2.211       1.111      1.1000E-02
   3    9.991       8.870       7.749       6.629       5.514       4.409       3.309       2.209       1.110      1.0991E-02
   4    9.991       8.868       7.743       6.618       5.493       4.398       3.303       2.207       1.109      1.0982E-02
   5    9.991       8.866       7.740       6.605       5.445       4.385       3.299       2.206       1.109      1.0978E-02
   6    9.991       8.868       7.744       6.619       5.494       4.399       3.304       2.207       1.109      1.0985E-02
   7    9.991       8.870       7.750       6.631       5.516       4.411       3.310       2.210       1.111      1.0998E-02
   8    9.991       8.873       7.755       6.639       5.527       4.420       3.316       2.213       1.112      1.1011E-02
   9    9.991       8.874       7.758       6.644       5.533       4.425       3.319       2.216       1.113      1.1021E-02
  10    9.991       8.875       7.760       6.647       5.535       4.427       3.321       2.217       1.114      1.1026E-02

 HEAD WILL BE SAVED ON UNIT   51 AT END OF TIME STEP   14, STRESS PERIOD    3
1
  VOLUMETRIC BUDGET FOR ENTIRE MODEL AT END OF TIME STEP   14, STRESS PERIOD   3
  ------------------------------------------------------------------------------

     CUMULATIVE VOLUMES      L**3       RATES FOR THIS TIME STEP      L**3/T
     ------------------                 ------------------------

           IN:                                      IN:
           ---                                      ---
             STORAGE =       25095.8281               STORAGE =       1.8933E-03
       CONSTANT HEAD =           0.0000         CONSTANT HEAD =           0.0000
               WELLS =           0.0000                 WELLS =           0.0000
     HEAD DEP BOUNDS =      625316.9375       HEAD DEP BOUNDS =        5599.5234

            TOTAL IN =      650412.7500              TOTAL IN =        5599.5254

          OUT:                                     OUT:
          ----                                     ----
             STORAGE =           0.0000               STORAGE =           0.0000
       CONSTANT HEAD =           0.0000         CONSTANT HEAD =           0.0000
               WELLS =        1400.0000                 WELLS =         100.0000
     HEAD DEP BOUNDS =      649038.6250       HEAD DEP BOUNDS =        5499.8164

           TOTAL OUT =      650438.6250             TOTAL OUT =        5599.8164

            IN - OUT =         -25.8750              IN - OUT =          -0.2910

 PERCENT DISCREPANCY =          -0.00     PERCENT DISCREPANCY =          -0.01






         TIME SUMMARY AT END OF TIME STEP   14 IN STRESS PERIOD    3
                    SECONDS     MINUTES      HOURS       DAYS        YEARS
                    -----------------------------------------------------------
   TIME STEP LENGTH  86400.      1440.0      24.000      1.0000     2.73785E-03
 STRESS PERIOD TIME 1.20960E+06  20160.      336.00      14.000     3.83299E-02
         TOTAL TIME 9.93600E+06 1.65600E+05  2760.0      115.00     0.31485    
1

 SOLVING FOR HEAD 

 OUTPUT CONTROL FOR STRESS PERIOD    3   TIME STEP   15
    PRINT HEAD FOR ALL LAYERS
    SAVE HEAD FOR ALL LAYERS
    PRINT BUDGET
    SAVE BUDGET
1
              HEAD IN LAYER   1 AT END OF TIME STEP  15 IN STRESS PERIOD    3
  ---------------------------------------------------------------------------

            1           2           3           4           5           6           7           8           9          10
 ........................................................................................................................
   1    9.991       8.872       7.755       6.640       5.528       4.420       3.315       2.213       1.112      1.1006E-02
   2    9.991       8.871       7.753       6.636       5.523       4.416       3.313       2.211       1.111      1.1000E-02
   3    9.991       8.870       7.749       6.629       5.514       4.409       3.309       2.209       1.110      1.0991E-02
   4    9.991       8.868       7.743       6.618       5.493       4.398       3.303       2.207       1.109      1.0982E-02
   5    9.991       8.866       7.740       6.605       5.445       4.385       3.299       2.206       1.109      1.0978E-02
   6    9.991       8.868       7.744       6.619       5.494       4.399       3.304       2.207       1.109      1.0985E-02
   7    9.991       8.870       7.750       6.631       5.516       4.411       3.310       2.210       1.111      1.0998E-02
   8    9.991       8.873       7.755       6.639       5.527       4.420       3.316       2.213       1.112      1.1011E-02
   9    9.991       8.874       7.758       6.644       5.533       4.425       3.319       2.216       1.113      1.1021E-02
  10    9.991       8.875       7.760       6.647       5.535       4.427       3.321       2.217       1.114      1.1026E-02

 HEAD WILL BE SAVED ON UNIT   51 AT END OF TIME STEP   15, STRESS PERIOD    3
1
  VOLUMETRIC BUDGET FOR ENTIRE MODEL AT END OF TIME STEP   15, STRESS PERIOD   3
  ------------------------------------------------------------------------------

     CUMULATIVE VOLUMES      L**3       RATES FOR THIS TIME STEP      L**3/T
     ------------------                 ------------------------

           IN:                                      IN:
           ---                                      ---
             STORAGE =       25095.8281               STORAGE =       8.5890E-04
       CONSTANT HEAD =           0.0000         CONSTANT HEAD =           0.0000
               WELLS =           0.0000                 WELLS =           0.0000
     HEAD DEP BOUNDS =      630916.4375       HEAD DEP BOUNDS =        5599.5239

            TOTAL IN =      656012.2500              TOTAL IN =        5599.5249

          OUT:                                     OUT:
          ----                                     ----
             STORAGE =           0.0000               STORAGE =           0.0000
       CONSTANT HEAD =           0.0000         CONSTANT HEAD =           0.0000
               WELLS =        1500.0000                 WELLS =         100.0000
     HEAD DEP BOUNDS =      654538.4375       HEAD DEP BOUNDS =        5499.8159

           TOTAL OUT =      656038.4375             TOTAL OUT =        5599.8159

            IN - OUT =         -26.1875              IN - OUT =          -0.2910

 PERCENT DISCREPANCY =          -0.00     PERCENT DISCREPANCY =          -0.01






         TIME SUMMARY AT END OF TIME STEP   15 IN STRESS PERIOD    3
                    SECONDS     MINUTES      HOURS       DAYS        YEARS
                    -----------------------------------------------------------
   TIME STEP LENGTH  86400.      1440.0      24.000      1.0000     2.73785E-03
 STRESS PERIOD TIME 1.29600E+06  21600.      360.00      15.000     4.10678E-02
         TOTAL TIME 1.00224E+07 1.67040E+05  2784.0      116.00     0.31759    
1

 SOLVING FOR HEAD 

 OUTPUT CONTROL FOR STRESS PERIOD    3   TIME STEP   16
    PRINT HEAD FOR ALL LAYERS
    SAVE HEAD FOR ALL LAYERS
    PRINT BUDGET
    SAVE BUDGET
1
              HEAD IN LAYER   1 AT END OF TIME STEP  16 IN STRESS PERIOD    3
  ---------------------------------------------------------------------------

            1           2           3           4           5           6           7           8           9          10
 ........................................................................................................................
   1    9.991       8.872       7.755       6.640       5.528       4.420       3.315       2.213       1.112      1.1006E-02
   2    9.991       8.871       7.753       6.636       5.523       4.416       3.313       2.211       1.111      1.1000E-02
   3    9.991       8.870       7.749       6.629       5.514       4.409       3.309       2.209       1.110      1.0991E-02
   4    9.991       8.868       7.743       6.618       5.493       4.398       3.303       2.207       1.109      1.0982E-02
   5    9.991       8.866       7.740       6.605       5.445       4.385       3.299       2.206       1.109      1.0978E-02
   6    9.991       8.868       7.744       6.619       5.494       4.399       3.304       2.207       1.109      1.0985E-02
   7    9.991       8.870       7.750       6.631       5.516       4.411       3.310       2.210       1.111      1.0998E-02
   8    9.991       8.873       7.755       6.639       5.527       4.420       3.316       2.213       1.112      1.1011E-02
   9    9.991       8.874       7.758       6.644       5.533       4.425       3.319       2.216       1.113      1.1021E-02
  10    9.991       8.875       7.760       6.647       5.535       4.427       3.321       2.217       1.114      1.1026E-02

 HEAD WILL BE SAVED ON UNIT   51 AT END OF TIME STEP   16, STRESS PERIOD    3
1
  VOLUMETRIC BUDGET FOR ENTIRE MODEL AT END OF TIME STEP   16, STRESS PERIOD   3
  ------------------------------------------------------------------------------

     CUMULATIVE VOLUMES      L**3       RATES FOR THIS TIME STEP      L**3/T
     ------------------                 ------------------------

           IN:                                      IN:
           ---                                      ---
             STORAGE =       25095.8281               STORAGE =       2.9767E-04
       CONSTANT HEAD =           0.0000         CONSTANT HEAD =           0.0000
               WELLS =           0.0000                 WELLS =           0.0000
     HEAD DEP BOUNDS =      636515.9375       HEAD DEP BOUNDS =        5599.5239

            TOTAL IN =      661611.7500              TOTAL IN =        5599.5244

          OUT:                                     OUT:
          ----                                     ----
             STORAGE =           0.0000               STORAGE =           0.0000
       CONSTANT HEAD =           0.0000         CONSTANT HEAD =           0.0000
               WELLS =        1600.0000                 WELLS =         100.0000
     HEAD DEP BOUNDS =      660038.2500       HEAD DEP BOUNDS =        5499.8159

           TOTAL OUT =      661638.2500             TOTAL OUT =        5599.8159

            IN - OUT =         -26.5000              IN - OUT =          -0.2915

 PERCENT DISCREPANCY =          -0.00     PERCENT DISCREPANCY =          -0.01






         TIME SUMMARY AT END OF TIME STEP   16 IN STRESS PERIOD    3
                    SECONDS     MINUTES      HOURS       DAYS        YEARS
                    -----------------------------------------------------------
   TIME STEP LENGTH  86400.      1440.0      24.000      1.0000     2.73785E-03
 STRESS PERIOD TIME 1.38240E+06  23040.      384.00      16.000     4.38056E-02
         TOTAL TIME 1.01088E+07 1.68480E+05  2808.0      117.00     0.32033    
1

 SOLVING FOR HEAD 

 OUTPUT CONTROL FOR STRESS PERIOD    3   TIME STEP   17
    PRINT HEAD FOR ALL LAYERS
    SAVE HEAD FOR ALL LAYERS
    PRINT BUDGET
    SAVE BUDGET
1
              HEAD IN LAYER   1 AT END OF TIME STEP  17 IN STRESS PERIOD    3
  ---------------------------------------------------------------------------

            1           2           3           4           5           6           7           8           9          10
 ........................................................................................................................
   1    9.991       8.872       7.755       6.640       5.528       4.420       3.315       2.213       1.112      1.1006E-02
   2    9.991       8.871       7.753       6.636       5.523       4.416       3.313       2.211       1.111      1.1000E-02
   3    9.991       8.870       7.749       6.629       5.514       4.409       3.309       2.209       1.110      1.0991E-02
   4    9.991       8.868       7.743       6.618       5.493       4.398       3.303       2.207       1.109      1.0982E-02
   5    9.991       8.866       7.740       6.605       5.445       4.385       3.299       2.206       1.109      1.0978E-02
   6    9.991       8.868       7.744       6.619       5.494       4.399       3.304       2.207       1.109      1.0985E-02
   7    9.991       8.870       7.750       6.631       5.516       4.411       3.310       2.210       1.111      1.0998E-02
   8    9.991       8.873       7.755       6.639       5.527       4.420       3.316       2.213       1.112      1.1011E-02
   9    9.991       8.874       7.758       6.644       5.533       4.425       3.319       2.216       1.113      1.1021E-02
  10    9.991       8.875       7.760       6.647       5.535       4.427       3.321       2.217       1.114      1.1026E-02

 HEAD WILL BE SAVED ON UNIT   51 AT END OF TIME STEP   17, STRESS PERIOD    3
1
  VOLUMETRIC BUDGET FOR ENTIRE MODEL AT END OF TIME STEP   17, STRESS PERIOD   3
  ------------------------------------------------------------------------------

     CUMULATIVE VOLUMES      L**3       RATES FOR THIS TIME STEP      L**3/T
     ------------------                 ------------------------

           IN:                                      IN:
           ---                                      ---
             STORAGE =       25095.8281               STORAGE =       1.3739E-04
       CONSTANT HEAD =           0.0000         CONSTANT HEAD =           0.0000
               WELLS =           0.0000                 WELLS =           0.0000
     HEAD DEP BOUNDS =      642115.4375       HEAD DEP BOUNDS =        5599.5239

            TOTAL IN =      667211.2500              TOTAL IN =        5599.5239

          OUT:                                     OUT:
          ----                                     ----
             STORAGE =           0.0000               STORAGE =           0.0000
       CONSTANT HEAD =           0.0000         CONSTANT HEAD =           0.0000
               WELLS =        1700.0000                 WELLS =         100.0000
     HEAD DEP BOUNDS =      665538.0625       HEAD DEP BOUNDS =        5499.8154

           TOTAL OUT =      667238.0625             TOTAL OUT =        5599.8154

            IN - OUT =         -26.8125              IN - OUT =          -0.2915

 PERCENT DISCREPANCY =          -0.00     PERCENT DISCREPANCY =          -0.01






         TIME SUMMARY AT END OF TIME STEP   17 IN STRESS PERIOD    3
                    SECONDS     MINUTES      HOURS       DAYS        YEARS
                    -----------------------------------------------------------
   TIME STEP LENGTH  86400.      1440.0      24.000      1.0000     2.73785E-03
 STRESS PERIOD TIME 1.46880E+06  24480.      408.00      17.000     4.65435E-02
         TOTAL TIME 1.01952E+07 1.69920E+05  2832.0      118.00     0.32307    
1

 SOLVING FOR HEAD 

 OUTPUT CONTROL FOR STRESS PERIOD    3   TIME STEP   18
    PRINT HEAD FOR ALL LAYERS
    SAVE HEAD FOR ALL LAYERS
    PRINT BUDGET
    SAVE BUDGET
1
              HEAD IN LAYER   1 AT END OF TIME STEP  18 IN STRESS PERIOD    3
  ---------------------------------------------------------------------------

            1           2           3           4           5           6           7           8           9          10
 ........................................................................................................................
   1    9.991       8.872       7.755       6.640       5.528       4.420       3.315       2.213       1.112      1.1006E-02
   2    9.991       8.871       7.753       6.636       5.523       4.416       3.313       2.211       1.111      1.1000E-02
   3    9.991       8.870       7.749       6.629       5.514       4.409       3.309       2.209       1.110      1.0991E-02
   4    9.991       8.868       7.743       6.618       5.493       4.398       3.303       2.207       1.109      1.0982E-02
   5    9.991       8.866       7.740       6.605       5.445       4.385       3.299       2.206       1.109      1.0978E-02
   6    9.991       8.868       7.744       6.619       5.494       4.399       3.304       2.207       1.109      1.0985E-02
   7    9.991       8.870       7.750       6.631       5.516       4.411       3.310       2.210       1.111      1.0998E-02
   8    9.991       8.873       7.755       6.639       5.527       4.420       3.316       2.213       1.112      1.1011E-02
   9    9.991       8.874       7.758       6.644       5.533       4.425       3.319       2.216       1.113      1.1021E-02
  10    9.991       8.875       7.760       6.647       5.535       4.427       3.321       2.217       1.114      1.1026E-02

 HEAD WILL BE SAVED ON UNIT   51 AT END OF TIME STEP   18, STRESS PERIOD    3
1
  VOLUMETRIC BUDGET FOR ENTIRE MODEL AT END OF TIME STEP   18, STRESS PERIOD   3
  ------------------------------------------------------------------------------

     CUMULATIVE VOLUMES      L**3       RATES FOR THIS TIME STEP      L**3/T
     ------------------                 ------------------------

           IN:                                      IN:
           ---                                      ---
             STORAGE =       25095.8281               STORAGE =       6.4850E-05
       CONSTANT HEAD =           0.0000         CONSTANT HEAD =           0.0000
               WELLS =           0.0000                 WELLS =           0.0000
     HEAD DEP BOUNDS =      647714.9375       HEAD DEP BOUNDS =        5599.5239

            TOTAL IN =      672810.7500              TOTAL IN =        5599.5239

          OUT:                                     OUT:
          ----                                     ----
             STORAGE =           0.0000               STORAGE =           0.0000
       CONSTANT HEAD =           0.0000         CONSTANT HEAD =           0.0000
               WELLS =        1800.0000                 WELLS =         100.0000
     HEAD DEP BOUNDS =      671037.8750       HEAD DEP BOUNDS =        5499.8154

           TOTAL OUT =      672837.8750             TOTAL OUT =        5599.8154

            IN - OUT =         -27.1250              IN - OUT =          -0.2915

 PERCENT DISCREPANCY =          -0.00     PERCENT DISCREPANCY =          -0.01






         TIME SUMMARY AT END OF TIME STEP   18 IN STRESS PERIOD    3
                    SECONDS     MINUTES      HOURS       DAYS        YEARS
                    -----------------------------------------------------------
   TIME STEP LENGTH  86400.      1440.0      24.000      1.0000     2.73785E-03
 STRESS PERIOD TIME 1.55520E+06  25920.      432.00      18.000     4.92813E-02
         TOTAL TIME 1.02816E+07 1.71360E+05  2856.0      119.00     0.32580    
1

 SOLVING FOR HEAD 

 OUTPUT CONTROL FOR STRESS PERIOD    3   TIME STEP   19
    PRINT HEAD FOR ALL LAYERS
    SAVE HEAD FOR ALL LAYERS
    PRINT BUDGET
    SAVE BUDGET
1
              HEAD IN LAYER   1 AT END OF TIME STEP  19 IN STRESS PERIOD    3
  ---------------------------------------------------------------------------

            1           2           3           4           5           6           7           8           9          10
 ........................................................................................................................
   1    9.991       8.872       7.755       6.640       5.528       4.420       3.315       2.213       1.112      1.1006E-02
   2    9.991       8.871       7.753       6.636       5.523       4.416       3.313       2.211       1.111      1.1000E-02
   3    9.991       8.870       7.749       6.629       5.514       4.409       3.309       2.209       1.110      1.0991E-02
   4    9.991       8.868       7.743       6.618       5.493       4.398       3.303       2.207       1.109      1.0982E-02
   5    9.991       8.866       7.740       6.605       5.445       4.385       3.299       2.206       1.109      1.0978E-02
   6    9.991       8.868       7.744       6.619       5.494       4.399       3.304       2.207       1.109      1.0985E-02
   7    9.991       8.870       7.750       6.631       5.516       4.411       3.310       2.210       1.111      1.0998E-02
   8    9.991       8.873       7.755       6.639       5.527       4.420       3.316       2.213       1.112      1.1011E-02
   9    9.991       8.874       7.758       6.644       5.533       4.425       3.319       2.216       1.113      1.1021E-02
  10    9.991       8.875       7.760       6.647       5.535       4.427       3.321       2.217       1.114      1.1026E-02

 HEAD WILL BE SAVED ON UNIT   51 AT END OF TIME STEP   19, STRESS PERIOD    3
1
  VOLUMETRIC BUDGET FOR ENTIRE MODEL AT END OF TIME STEP   19, STRESS PERIOD   3
  ------------------------------------------------------------------------------

     CUMULATIVE VOLUMES      L**3       RATES FOR THIS TIME STEP      L**3/T
     ------------------                 ------------------------

           IN:                                      IN:
           ---                                      ---
             STORAGE =       25095.8281               STORAGE =       7.6890E-06
       CONSTANT HEAD =           0.0000         CONSTANT HEAD =           0.0000
               WELLS =           0.0000                 WELLS =           0.0000
     HEAD DEP BOUNDS =      653314.4375       HEAD DEP BOUNDS =        5599.5239

            TOTAL IN =      678410.2500              TOTAL IN =        5599.5239

          OUT:                                     OUT:
          ----                                     ----
             STORAGE =           0.0000               STORAGE =           0.0000
       CONSTANT HEAD =           0.0000         CONSTANT HEAD =           0.0000
               WELLS =        1900.0000                 WELLS =         100.0000
     HEAD DEP BOUNDS =      676537.6875       HEAD DEP BOUNDS =        5499.8154

           TOTAL OUT =      678437.6875             TOTAL OUT =        5599.8154

            IN - OUT =         -27.4375              IN - OUT =          -0.2915

 PERCENT DISCREPANCY =          -0.00     PERCENT DISCREPANCY =          -0.01






         TIME SUMMARY AT END OF TIME STEP   19 IN STRESS PERIOD    3
                    SECONDS     MINUTES      HOURS       DAYS        YEARS
                    -----------------------------------------------------------
   TIME STEP LENGTH  86400.      1440.0      24.000      1.0000     2.73785E-03
 STRESS PERIOD TIME 1.64160E+06  27360.      456.00      19.000     5.20192E-02
         TOTAL TIME 1.03680E+07 1.72800E+05  2880.0      120.00     0.32854    
1

 SOLVING FOR HEAD 

 OUTPUT CONTROL FOR STRESS PERIOD    3   TIME STEP   20
    PRINT HEAD FOR ALL LAYERS
    SAVE HEAD FOR ALL LAYERS
    PRINT BUDGET
    SAVE BUDGET
1
              HEAD IN LAYER   1 AT END OF TIME STEP  20 IN STRESS PERIOD    3
  ---------------------------------------------------------------------------

            1           2           3           4           5           6           7           8           9          10
 ........................................................................................................................
   1    9.991       8.872       7.755       6.640       5.528       4.420       3.315       2.213       1.112      1.1006E-02
   2    9.991       8.871       7.753       6.636       5.523       4.416       3.313       2.211       1.111      1.1000E-02
   3    9.991       8.870       7.749       6.629       5.514       4.409       3.309       2.209       1.110      1.0991E-02
   4    9.991       8.868       7.743       6.618       5.493       4.398       3.303       2.207       1.109      1.0982E-02
   5    9.991       8.866       7.740       6.605       5.445       4.385       3.299       2.206       1.109      1.0978E-02
   6    9.991       8.868       7.744       6.619       5.494       4.399       3.304       2.207       1.109      1.0985E-02
   7    9.991       8.870       7.750       6.631       5.516       4.411       3.310       2.210       1.111      1.0998E-02
   8    9.991       8.873       7.755       6.639       5.527       4.420       3.316       2.213       1.112      1.1011E-02
   9    9.991       8.874       7.758       6.644       5.533       4.425       3.319       2.216       1.113      1.1021E-02
  10    9.991       8.875       7.760       6.647       5.535       4.427       3.321       2.217       1.114      1.1026E-02

 HEAD WILL BE SAVED ON UNIT   51 AT END OF TIME STEP   20, STRESS PERIOD    3
1
  VOLUMETRIC BUDGET FOR ENTIRE MODEL AT END OF TIME STEP   20, STRESS PERIOD   3
  ------------------------------------------------------------------------------

     CUMULATIVE VOLUMES      L**3       RATES FOR THIS TIME STEP      L**3/T
     ------------------                 ------------------------

           IN:                                      IN:
           ---                                      ---
             STORAGE =       25095.8281               STORAGE =           0.0000
       CONSTANT HEAD =           0.0000         CONSTANT HEAD =           0.0000
               WELLS =           0.0000                 WELLS =           0.0000
     HEAD DEP BOUNDS =      658913.9375       HEAD DEP BOUNDS =        5599.5239

            TOTAL IN =      684009.7500              TOTAL IN =        5599.5239

          OUT:                                     OUT:
          ----                                     ----
             STORAGE =           0.0000               STORAGE =           0.0000
       CONSTANT HEAD =           0.0000         CONSTANT HEAD =           0.0000
               WELLS =        2000.0000                 WELLS =         100.0000
     HEAD DEP BOUNDS =      682037.5000       HEAD DEP BOUNDS =        5499.8154

           TOTAL OUT =      684037.5000             TOTAL OUT =        5599.8154

            IN - OUT =         -27.7500              IN - OUT =          -0.2915

 PERCENT DISCREPANCY =          -0.00     PERCENT DISCREPANCY =          -0.01






         TIME SUMMARY AT END OF TIME STEP   20 IN STRESS PERIOD    3
                    SECONDS     MINUTES      HOURS       DAYS        YEARS
                    -----------------------------------------------------------
   TIME STEP LENGTH  86400.      1440.0      24.000      1.0000     2.73785E-03
 STRESS PERIOD TIME 1.72800E+06  28800.      480.00      20.000     5.47570E-02
         TOTAL TIME 1.04544E+07 1.74240E+05  2904.0      121.00     0.33128    
1

 SOLVING FOR HEAD 

 OUTPUT CONTROL FOR STRESS PERIOD    3   TIME STEP   21
    PRINT HEAD FOR ALL LAYERS
    SAVE HEAD FOR ALL LAYERS
    PRINT BUDGET
    SAVE BUDGET
1
              HEAD IN LAYER   1 AT END OF TIME STEP  21 IN STRESS PERIOD    3
  ---------------------------------------------------------------------------

            1           2           3           4           5           6           7           8           9          10
 ........................................................................................................................
   1    9.991       8.872       7.755       6.640       5.528       4.420       3.315       2.213       1.112      1.1006E-02
   2    9.991       8.871       7.753       6.636       5.523       4.416       3.313       2.211       1.111      1.1000E-02
   3    9.991       8.870       7.749       6.629       5.514       4.409       3.309       2.209       1.110      1.0991E-02
   4    9.991       8.868       7.743       6.618       5.493       4.398       3.303       2.207       1.109      1.0982E-02
   5    9.991       8.866       7.740       6.605       5.445       4.385       3.299       2.206       1.109      1.0978E-02
   6    9.991       8.868       7.744       6.619       5.494       4.399       3.304       2.207       1.109      1.0985E-02
   7    9.991       8.870       7.750       6.631       5.516       4.411       3.310       2.210       1.111      1.0998E-02
   8    9.991       8.873       7.755       6.639       5.527       4.420       3.316       2.213       1.112      1.1011E-02
   9    9.991       8.874       7.758       6.644       5.533       4.425       3.319       2.216       1.113      1.1021E-02
  10    9.991       8.875       7.760       6.647       5.535       4.427       3.321       2.217       1.114      1.1026E-02

 HEAD WILL BE SAVED ON UNIT   51 AT END OF TIME STEP   21, STRESS PERIOD    3
1
  VOLUMETRIC BUDGET FOR ENTIRE MODEL AT END OF TIME STEP   21, STRESS PERIOD   3
  ------------------------------------------------------------------------------

     CUMULATIVE VOLUMES      L**3       RATES FOR THIS TIME STEP      L**3/T
     ------------------                 ------------------------

           IN:                                      IN:
           ---                                      ---
             STORAGE =       25095.8281               STORAGE =           0.0000
       CONSTANT HEAD =           0.0000         CONSTANT HEAD =           0.0000
               WELLS =           0.0000                 WELLS =           0.0000
     HEAD DEP BOUNDS =      664513.4375       HEAD DEP BOUNDS =        5599.5239

            TOTAL IN =      689609.2500              TOTAL IN =        5599.5239

          OUT:                                     OUT:
          ----                                     ----
             STORAGE =           0.0000               STORAGE =           0.0000
       CONSTANT HEAD =           0.0000         CONSTANT HEAD =           0.0000
               WELLS =        2100.0000                 WELLS =         100.0000
     HEAD DEP BOUNDS =      687537.3125       HEAD DEP BOUNDS =        5499.8154

           TOTAL OUT =      689637.3125             TOTAL OUT =        5599.8154

            IN - OUT =         -28.0625              IN - OUT =          -0.2915

 PERCENT DISCREPANCY =          -0.00     PERCENT DISCREPANCY =          -0.01






         TIME SUMMARY AT END OF TIME STEP   21 IN STRESS PERIOD    3
                    SECONDS     MINUTES      HOURS       DAYS        YEARS
                    -----------------------------------------------------------
   TIME STEP LENGTH  86400.      1440.0      24.000      1.0000     2.73785E-03
 STRESS PERIOD TIME 1.81440E+06  30240.      504.00      21.000     5.74949E-02
         TOTAL TIME 1.05408E+07 1.75680E+05  2928.0      122.00     0.33402    
1

 SOLVING FOR HEAD 

 OUTPUT CONTROL FOR STRESS PERIOD    3   TIME STEP   22
    PRINT HEAD FOR ALL LAYERS
    SAVE HEAD FOR ALL LAYERS
    PRINT BUDGET
    SAVE BUDGET
1
              HEAD IN LAYER   1 AT END OF TIME STEP  22 IN STRESS PERIOD    3
  ---------------------------------------------------------------------------

            1           2           3           4           5           6           7           8           9          10
 ........................................................................................................................
   1    9.991       8.872       7.755       6.640       5.528       4.420       3.315       2.213       1.112      1.1006E-02
   2    9.991       8.871       7.753       6.636       5.523       4.416       3.313       2.211       1.111      1.1000E-02
   3    9.991       8.870       7.749       6.629       5.514       4.409       3.309       2.209       1.110      1.0991E-02
   4    9.991       8.868       7.743       6.618       5.493       4.398       3.303       2.207       1.109      1.0982E-02
   5    9.991       8.866       7.740       6.605       5.445       4.385       3.299       2.206       1.109      1.0978E-02
   6    9.991       8.868       7.744       6.619       5.494       4.399       3.304       2.207       1.109      1.0985E-02
   7    9.991       8.870       7.750       6.631       5.516       4.411       3.310       2.210       1.111      1.0998E-02
   8    9.991       8.873       7.755       6.639       5.527       4.420       3.316       2.213       1.112      1.1011E-02
   9    9.991       8.874       7.758       6.644       5.533       4.425       3.319       2.216       1.113      1.1021E-02
  10    9.991       8.875       7.760       6.647       5.535       4.427       3.321       2.217       1.114      1.1026E-02

 HEAD WILL BE SAVED ON UNIT   51 AT END OF TIME STEP   22, STRESS PERIOD    3
1
  VOLUMETRIC BUDGET FOR ENTIRE MODEL AT END OF TIME STEP   22, STRESS PERIOD   3
  ------------------------------------------------------------------------------

     CUMULATIVE VOLUMES      L**3       RATES FOR THIS TIME STEP      L**3/T
     ------------------                 ------------------------

           IN:                                      IN:
           ---                                      ---
             STORAGE =       25095.8281               STORAGE =           0.0000
       CONSTANT HEAD =           0.0000         CONSTANT HEAD =           0.0000
               WELLS =           0.0000                 WELLS =           0.0000
     HEAD DEP BOUNDS =      670112.9375       HEAD DEP BOUNDS =        5599.5239

            TOTAL IN =      695208.7500              TOTAL IN =        5599.5239

          OUT:                                     OUT:
          ----                                     ----
             STORAGE =           0.0000               STORAGE =           0.0000
       CONSTANT HEAD =           0.0000         CONSTANT HEAD =           0.0000
               WELLS =        2200.0000                 WELLS =         100.0000
     HEAD DEP BOUNDS =      693037.1250       HEAD DEP BOUNDS =        5499.8154

           TOTAL OUT =      695237.1250             TOTAL OUT =        5599.8154

            IN - OUT =         -28.3750              IN - OUT =          -0.2915

 PERCENT DISCREPANCY =          -0.00     PERCENT DISCREPANCY =          -0.01






         TIME SUMMARY AT END OF TIME STEP   22 IN STRESS PERIOD    3
                    SECONDS     MINUTES      HOURS       DAYS        YEARS
                    -----------------------------------------------------------
   TIME STEP LENGTH  86400.      1440.0      24.000      1.0000     2.73785E-03
 STRESS PERIOD TIME 1.90080E+06  31680.      528.00      22.000     6.02327E-02
         TOTAL TIME 1.06272E+07 1.77120E+05  2952.0      123.00     0.33676    
1

 SOLVING FOR HEAD 

 OUTPUT CONTROL FOR STRESS PERIOD    3   TIME STEP   23
    PRINT HEAD FOR ALL LAYERS
    SAVE HEAD FOR ALL LAYERS
    PRINT BUDGET
    SAVE BUDGET
1
              HEAD IN LAYER   1 AT END OF TIME STEP  23 IN STRESS PERIOD    3
  ---------------------------------------------------------------------------

            1           2           3           4           5           6           7           8           9          10
 ........................................................................................................................
   1    9.991       8.872       7.755       6.640       5.528       4.420       3.315       2.213       1.112      1.1006E-02
   2    9.991       8.871       7.753       6.636       5.523       4.416       3.313       2.211       1.111      1.1000E-02
   3    9.991       8.870       7.749       6.629       5.514       4.409       3.309       2.209       1.110      1.0991E-02
   4    9.991       8.868       7.743       6.618       5.493       4.398       3.303       2.207       1.109      1.0982E-02
   5    9.991       8.866       7.740       6.605       5.445       4.385       3.299       2.206       1.109      1.0978E-02
   6    9.991       8.868       7.744       6.619       5.494       4.399       3.304       2.207       1.109      1.0985E-02
   7    9.991       8.870       7.750       6.631       5.516       4.411       3.310       2.210       1.111      1.0998E-02
   8    9.991       8.873       7.755       6.639       5.527       4.420       3.316       2.213       1.112      1.1011E-02
   9    9.991       8.874       7.758       6.644       5.533       4.425       3.319       2.216       1.113      1.1021E-02
  10    9.991       8.875       7.760       6.647       5.535       4.427       3.321       2.217       1.114      1.1026E-02

 HEAD WILL BE SAVED ON UNIT   51 AT END OF TIME STEP   23, STRESS PERIOD    3
1
  VOLUMETRIC BUDGET FOR ENTIRE MODEL AT END OF TIME STEP   23, STRESS PERIOD   3
  ------------------------------------------------------------------------------

     CUMULATIVE VOLUMES      L**3       RATES FOR THIS TIME STEP      L**3/T
     ------------------                 ------------------------

           IN:                                      IN:
           ---                                      ---
             STORAGE =       25095.8281               STORAGE =           0.0000
       CONSTANT HEAD =           0.0000         CONSTANT HEAD =           0.0000
               WELLS =           0.0000                 WELLS =           0.0000
     HEAD DEP BOUNDS =      675712.4375       HEAD DEP BOUNDS =        5599.5239

            TOTAL IN =      700808.2500              TOTAL IN =        5599.5239

          OUT:                                     OUT:
          ----                                     ----
             STORAGE =           0.0000               STORAGE =           0.0000
       CONSTANT HEAD =           0.0000         CONSTANT HEAD =           0.0000
               WELLS =        2300.0000                 WELLS =         100.0000
     HEAD DEP BOUNDS =      698536.9375       HEAD DEP BOUNDS =        5499.8154

           TOTAL OUT =      700836.9375             TOTAL OUT =        5599.8154

            IN - OUT =         -28.6875              IN - OUT =          -0.2915

 PERCENT DISCREPANCY =          -0.00     PERCENT DISCREPANCY =          -0.01






         TIME SUMMARY AT END OF TIME STEP   23 IN STRESS PERIOD    3
                    SECONDS     MINUTES      HOURS       DAYS        YEARS
                    -----------------------------------------------------------
   TIME STEP LENGTH  86400.      1440.0      24.000      1.0000     2.73785E-03
 STRESS PERIOD TIME 1.98720E+06  33120.      552.00      23.000     6.29706E-02
         TOTAL TIME 1.07136E+07 1.78560E+05  2976.0      124.00     0.33949    
1

 SOLVING FOR HEAD 

 OUTPUT CONTROL FOR STRESS PERIOD    3   TIME STEP   24
    PRINT HEAD FOR ALL LAYERS
    SAVE HEAD FOR ALL LAYERS
    PRINT BUDGET
    SAVE BUDGET
1
              HEAD IN LAYER   1 AT END OF TIME STEP  24 IN STRESS PERIOD    3
  ---------------------------------------------------------------------------

            1           2           3           4           5           6           7           8           9          10
 ........................................................................................................................
   1    9.991       8.872       7.755       6.640       5.528       4.420       3.315       2.213       1.112      1.1006E-02
   2    9.991       8.871       7.753       6.636       5.523       4.416       3.313       2.211       1.111      1.1000E-02
   3    9.991       8.870       7.749       6.629       5.514       4.409       3.309       2.209       1.110      1.0991E-02
   4    9.991       8.868       7.743       6.618       5.493       4.398       3.303       2.207       1.109      1.0982E-02
   5    9.991       8.866       7.740       6.605       5.445       4.385       3.299       2.206       1.109      1.0978E-02
   6    9.991       8.868       7.744       6.619       5.494       4.399       3.304       2.207       1.109      1.0985E-02
   7    9.991       8.870       7.750       6.631       5.516       4.411       3.310       2.210       1.111      1.0998E-02
   8    9.991       8.873       7.755       6.639       5.527       4.420       3.316       2.213       1.112      1.1011E-02
   9    9.991       8.874       7.758       6.644       5.533       4.425       3.319       2.216       1.113      1.1021E-02
  10    9.991       8.875       7.760       6.647       5.535       4.427       3.321       2.217       1.114      1.1026E-02

 HEAD WILL BE SAVED ON UNIT   51 AT END OF TIME STEP   24, STRESS PERIOD    3
1
  VOLUMETRIC BUDGET FOR ENTIRE MODEL AT END OF TIME STEP   24, STRESS PERIOD   3
  ------------------------------------------------------------------------------

     CUMULATIVE VOLUMES      L**3       RATES FOR THIS TIME STEP      L**3/T
     ------------------                 ------------------------

           IN:                                      IN:
           ---                                      ---
             STORAGE =       25095.8281               STORAGE =           0.0000
       CONSTANT HEAD =           0.0000         CONSTANT HEAD =           0.0000
               WELLS =           0.0000                 WELLS =           0.0000
     HEAD DEP BOUNDS =      681311.9375       HEAD DEP BOUNDS =        5599.5239

            TOTAL IN =      706407.7500              TOTAL IN =        5599.5239

          OUT:                                     OUT:
          ----                                     ----
             STORAGE =           0.0000               STORAGE =           0.0000
       CONSTANT HEAD =           0.0000         CONSTANT HEAD =           0.0000
               WELLS =        2400.0000                 WELLS =         100.0000
     HEAD DEP BOUNDS =      704036.7500       HEAD DEP BOUNDS =        5499.8154

           TOTAL OUT =      706436.7500             TOTAL OUT =        5599.8154

            IN - OUT =         -29.0000              IN - OUT =          -0.2915

 PERCENT DISCREPANCY =          -0.00     PERCENT DISCREPANCY =          -0.01






         TIME SUMMARY AT END OF TIME STEP   24 IN STRESS PERIOD    3
                    SECONDS     MINUTES      HOURS       DAYS        YEARS
                    -----------------------------------------------------------
   TIME STEP LENGTH  86400.      1440.0      24.000      1.0000     2.73785E-03
 STRESS PERIOD TIME 2.07360E+06  34560.      576.00      24.000     6.57084E-02
         TOTAL TIME 1.08000E+07 1.80000E+05  3000.0      125.00     0.34223    
1

 SOLVING FOR HEAD 

 OUTPUT CONTROL FOR STRESS PERIOD    3   TIME STEP   25
    PRINT HEAD FOR ALL LAYERS
    SAVE HEAD FOR ALL LAYERS
    PRINT BUDGET
    SAVE BUDGET
1
              HEAD IN LAYER   1 AT END OF TIME STEP  25 IN STRESS PERIOD    3
  ---------------------------------------------------------------------------

            1           2           3           4           5           6           7           8           9          10
 ........................................................................................................................
   1    9.991       8.872       7.755       6.640       5.528       4.420       3.315       2.213       1.112      1.1006E-02
   2    9.991       8.871       7.753       6.636       5.523       4.416       3.313       2.211       1.111      1.1000E-02
   3    9.991       8.870       7.749       6.629       5.514       4.409       3.309       2.209       1.110      1.0991E-02
   4    9.991       8.868       7.743       6.618       5.493       4.398       3.303       2.207       1.109      1.0982E-02
   5    9.991       8.866       7.740       6.605       5.445       4.385       3.299       2.206       1.109      1.0978E-02
   6    9.991       8.868       7.744       6.619       5.494       4.399       3.304       2.207       1.109      1.0985E-02
   7    9.991       8.870       7.750       6.631       5.516       4.411       3.310       2.210       1.111      1.0998E-02
   8    9.991       8.873       7.755       6.639       5.527       4.420       3.316       2.213       1.112      1.1011E-02
   9    9.991       8.874       7.758       6.644       5.533       4.425       3.319       2.216       1.113      1.1021E-02
  10    9.991       8.875       7.760       6.647       5.535       4.427       3.321       2.217       1.114      1.1026E-02

 HEAD WILL BE SAVED ON UNIT   51 AT END OF TIME STEP   25, STRESS PERIOD    3
1
  VOLUMETRIC BUDGET FOR ENTIRE MODEL AT END OF TIME STEP   25, STRESS PERIOD   3
  ------------------------------------------------------------------------------

     CUMULATIVE VOLUMES      L**3       RATES FOR THIS TIME STEP      L**3/T
     ------------------                 ------------------------

           IN:                                      IN:
           ---                                      ---
             STORAGE =       25095.8281               STORAGE =           0.0000
       CONSTANT HEAD =           0.0000         CONSTANT HEAD =           0.0000
               WELLS =           0.0000                 WELLS =           0.0000
     HEAD DEP BOUNDS =      686911.4375       HEAD DEP BOUNDS =        5599.5239

            TOTAL IN =      712007.2500              TOTAL IN =        5599.5239

          OUT:                                     OUT:
          ----                                     ----
             STORAGE =           0.0000               STORAGE =           0.0000
       CONSTANT HEAD =           0.0000         CONSTANT HEAD =           0.0000
               WELLS =        2500.0000                 WELLS =         100.0000
     HEAD DEP BOUNDS =      709536.5625       HEAD DEP BOUNDS =        5499.8154

           TOTAL OUT =      712036.5625             TOTAL OUT =        5599.8154

            IN - OUT =         -29.3125              IN - OUT =          -0.2915

 PERCENT DISCREPANCY =          -0.00     PERCENT DISCREPANCY =          -0.01






         TIME SUMMARY AT END OF TIME STEP   25 IN STRESS PERIOD    3
                    SECONDS     MINUTES      HOURS       DAYS        YEARS
                    -----------------------------------------------------------
   TIME STEP LENGTH  86400.      1440.0      24.000      1.0000     2.73785E-03
 STRESS PERIOD TIME 2.16000E+06  36000.      600.00      25.000     6.84463E-02
         TOTAL TIME 1.08864E+07 1.81440E+05  3024.0      126.00     0.34497    
1

 SOLVING FOR HEAD 

 OUTPUT CONTROL FOR STRESS PERIOD    3   TIME STEP   26
    PRINT HEAD FOR ALL LAYERS
    SAVE HEAD FOR ALL LAYERS
    PRINT BUDGET
    SAVE BUDGET
1
              HEAD IN LAYER   1 AT END OF TIME STEP  26 IN STRESS PERIOD    3
  ---------------------------------------------------------------------------

            1           2           3           4           5           6           7           8           9          10
 ........................................................................................................................
   1    9.991       8.872       7.755       6.640       5.528       4.420       3.315       2.213       1.112      1.1006E-02
   2    9.991       8.871       7.753       6.636       5.523       4.416       3.313       2.211       1.111      1.1000E-02
   3    9.991       8.870       7.749       6.629       5.514       4.409       3.309       2.209       1.110      1.0991E-02
   4    9.991       8.868       7.743       6.618       5.493       4.398       3.303       2.207       1.109      1.0982E-02
   5    9.991       8.866       7.740       6.605       5.445       4.385       3.299       2.206       1.109      1.0978E-02
   6    9.991       8.868       7.744       6.619       5.494       4.399       3.304       2.207       1.109      1.0985E-02
   7    9.991       8.870       7.750       6.631       5.516       4.411       3.310       2.210       1.111      1.0998E-02
   8    9.991       8.873       7.755       6.639       5.527       4.420       3.316       2.213       1.112      1.1011E-02
   9    9.991       8.874       7.758       6.644       5.533       4.425       3.319       2.216       1.113      1.1021E-02
  10    9.991       8.875       7.760       6.647       5.535       4.427       3.321       2.217       1.114      1.1026E-02

 HEAD WILL BE SAVED ON UNIT   51 AT END OF TIME STEP   26, STRESS PERIOD    3
1
  VOLUMETRIC BUDGET FOR ENTIRE MODEL AT END OF TIME STEP   26, STRESS PERIOD   3
  ------------------------------------------------------------------------------

     CUMULATIVE VOLUMES      L**3       RATES FOR THIS TIME STEP      L**3/T
     ------------------                 ------------------------

           IN:                                      IN:
           ---                                      ---
             STORAGE =       25095.8281               STORAGE =           0.0000
       CONSTANT HEAD =           0.0000         CONSTANT HEAD =           0.0000
               WELLS =           0.0000                 WELLS =           0.0000
     HEAD DEP BOUNDS =      692510.9375       HEAD DEP BOUNDS =        5599.5239

            TOTAL IN =      717606.7500              TOTAL IN =        5599.5239

          OUT:                                     OUT:
          ----                                     ----
             STORAGE =           0.0000               STORAGE =           0.0000
       CONSTANT HEAD =           0.0000         CONSTANT HEAD =           0.0000
               WELLS =        2600.0000                 WELLS =         100.0000
     HEAD DEP BOUNDS =      715036.3750       HEAD DEP BOUNDS =        5499.8154

           TOTAL OUT =      717636.3750             TOTAL OUT =        5599.8154

            IN - OUT =         -29.6250              IN - OUT =          -0.2915

 PERCENT DISCREPANCY =          -0.00     PERCENT DISCREPANCY =          -0.01






         TIME SUMMARY AT END OF TIME STEP   26 IN STRESS PERIOD    3
                    SECONDS     MINUTES      HOURS       DAYS        YEARS
                    -----------------------------------------------------------
   TIME STEP LENGTH  86400.      1440.0      24.000      1.0000     2.73785E-03
 STRESS PERIOD TIME 2.24640E+06  37440.      624.00      26.000     7.11841E-02
         TOTAL TIME 1.09728E+07 1.82880E+05  3048.0      127.00     0.34771    
1

 SOLVING FOR HEAD 

 OUTPUT CONTROL FOR STRESS PERIOD    3   TIME STEP   27
    PRINT HEAD FOR ALL LAYERS
    SAVE HEAD FOR ALL LAYERS
    PRINT BUDGET
    SAVE BUDGET
1
              HEAD IN LAYER   1 AT END OF TIME STEP  27 IN STRESS PERIOD    3
  ---------------------------------------------------------------------------

            1           2           3           4           5           6           7           8           9          10
 ........................................................................................................................
   1    9.991       8.872       7.755       6.640       5.528       4.420       3.315       2.213       1.112      1.1006E-02
   2    9.991       8.871       7.753       6.636       5.523       4.416       3.313       2.211       1.111      1.1000E-02
   3    9.991       8.870       7.749       6.629       5.514       4.409       3.309       2.209       1.110      1.0991E-02
   4    9.991       8.868       7.743       6.618       5.493       4.398       3.303       2.207       1.109      1.0982E-02
   5    9.991       8.866       7.740       6.605       5.445       4.385       3.299       2.206       1.109      1.0978E-02
   6    9.991       8.868       7.744       6.619       5.494       4.399       3.304       2.207       1.109      1.0985E-02
   7    9.991       8.870       7.750       6.631       5.516       4.411       3.310       2.210       1.111      1.0998E-02
   8    9.991       8.873       7.755       6.639       5.527       4.420       3.316       2.213       1.112      1.1011E-02
   9    9.991       8.874       7.758       6.644       5.533       4.425       3.319       2.216       1.113      1.1021E-02
  10    9.991       8.875       7.760       6.647       5.535       4.427       3.321       2.217       1.114      1.1026E-02

 HEAD WILL BE SAVED ON UNIT   51 AT END OF TIME STEP   27, STRESS PERIOD    3
1
  VOLUMETRIC BUDGET FOR ENTIRE MODEL AT END OF TIME STEP   27, STRESS PERIOD   3
  ------------------------------------------------------------------------------

     CUMULATIVE VOLUMES      L**3       RATES FOR THIS TIME STEP      L**3/T
     ------------------                 ------------------------

           IN:                                      IN:
           ---                                      ---
             STORAGE =       25095.8281               STORAGE =           0.0000
       CONSTANT HEAD =           0.0000         CONSTANT HEAD =           0.0000
               WELLS =           0.0000                 WELLS =           0.0000
     HEAD DEP BOUNDS =      698110.4375       HEAD DEP BOUNDS =        5599.5239

            TOTAL IN =      723206.2500              TOTAL IN =        5599.5239

          OUT:                                     OUT:
          ----                                     ----
             STORAGE =           0.0000               STORAGE =           0.0000
       CONSTANT HEAD =           0.0000         CONSTANT HEAD =           0.0000
               WELLS =        2700.0000                 WELLS =         100.0000
     HEAD DEP BOUNDS =      720536.1875       HEAD DEP BOUNDS =        5499.8154

           TOTAL OUT =      723236.1875             TOTAL OUT =        5599.8154

            IN - OUT =         -29.9375              IN - OUT =          -0.2915

 PERCENT DISCREPANCY =          -0.00     PERCENT DISCREPANCY =          -0.01






         TIME SUMMARY AT END OF TIME STEP   27 IN STRESS PERIOD    3
                    SECONDS     MINUTES      HOURS       DAYS        YEARS
                    -----------------------------------------------------------
   TIME STEP LENGTH  86400.      1440.0      24.000      1.0000     2.73785E-03
 STRESS PERIOD TIME 2.33280E+06  38880.      648.00      27.000     7.39220E-02
         TOTAL TIME 1.10592E+07 1.84320E+05  3072.0      128.00     0.35044    
1

 SOLVING FOR HEAD 

 OUTPUT CONTROL FOR STRESS PERIOD    3   TIME STEP   28
    PRINT HEAD FOR ALL LAYERS
    SAVE HEAD FOR ALL LAYERS
    PRINT BUDGET
    SAVE BUDGET
1
              HEAD IN LAYER   1 AT END OF TIME STEP  28 IN STRESS PERIOD    3
  ---------------------------------------------------------------------------

            1           2           3           4           5           6           7           8           9          10
 ........................................................................................................................
   1    9.991       8.872       7.755       6.640       5.528       4.420       3.315       2.213       1.112      1.1006E-02
   2    9.991       8.871       7.753       6.636       5.523       4.416       3.313       2.211       1.111      1.1000E-02
   3    9.991       8.870       7.749       6.629       5.514       4.409       3.309       2.209       1.110      1.0991E-02
   4    9.991       8.868       7.743       6.618       5.493       4.398       3.303       2.207       1.109      1.0982E-02
   5    9.991       8.866       7.740       6.605       5.445       4.385       3.299       2.206       1.109      1.0978E-02
   6    9.991       8.868       7.744       6.619       5.494       4.399       3.304       2.207       1.109      1.0985E-02
   7    9.991       8.870       7.750       6.631       5.516       4.411       3.310       2.210       1.111      1.0998E-02
   8    9.991       8.873       7.755       6.639       5.527       4.420       3.316       2.213       1.112      1.1011E-02
   9    9.991       8.874       7.758       6.644       5.533       4.425       3.319       2.216       1.113      1.1021E-02
  10    9.991       8.875       7.760       6.647       5.535       4.427       3.321       2.217       1.114      1.1026E-02

 HEAD WILL BE SAVED ON UNIT   51 AT END OF TIME STEP   28, STRESS PERIOD    3
1
  VOLUMETRIC BUDGET FOR ENTIRE MODEL AT END OF TIME STEP   28, STRESS PERIOD   3
  ------------------------------------------------------------------------------

     CUMULATIVE VOLUMES      L**3       RATES FOR THIS TIME STEP      L**3/T
     ------------------                 ------------------------

           IN:                                      IN:
           ---                                      ---
             STORAGE =       25095.8281               STORAGE =           0.0000
       CONSTANT HEAD =           0.0000         CONSTANT HEAD =           0.0000
               WELLS =           0.0000                 WELLS =           0.0000
     HEAD DEP BOUNDS =      703709.9375       HEAD DEP BOUNDS =        5599.5239

            TOTAL IN =      728805.7500              TOTAL IN =        5599.5239

          OUT:                                     OUT:
          ----                                     ----
             STORAGE =           0.0000               STORAGE =           0.0000
       CONSTANT HEAD =           0.0000         CONSTANT HEAD =           0.0000
               WELLS =        2800.0000                 WELLS =         100.0000
     HEAD DEP BOUNDS =      726036.0000       HEAD DEP BOUNDS =        5499.8154

           TOTAL OUT =      728836.0000             TOTAL OUT =        5599.8154

            IN - OUT =         -30.2500              IN - OUT =          -0.2915

 PERCENT DISCREPANCY =          -0.00     PERCENT DISCREPANCY =          -0.01






         TIME SUMMARY AT END OF TIME STEP   28 IN STRESS PERIOD    3
                    SECONDS     MINUTES      HOURS       DAYS        YEARS
                    -----------------------------------------------------------
   TIME STEP LENGTH  86400.      1440.0      24.000      1.0000     2.73785E-03
 STRESS PERIOD TIME 2.41920E+06  40320.      672.00      28.000     7.66598E-02
         TOTAL TIME 1.11456E+07 1.85760E+05  3096.0      129.00     0.35318    
1

 SOLVING FOR HEAD 

 OUTPUT CONTROL FOR STRESS PERIOD    3   TIME STEP   29
    PRINT HEAD FOR ALL LAYERS
    SAVE HEAD FOR ALL LAYERS
    PRINT BUDGET
    SAVE BUDGET
1
              HEAD IN LAYER   1 AT END OF TIME STEP  29 IN STRESS PERIOD    3
  ---------------------------------------------------------------------------

            1           2           3           4           5           6           7           8           9          10
 ........................................................................................................................
   1    9.991       8.872       7.755       6.640       5.528       4.420       3.315       2.213       1.112      1.1006E-02
   2    9.991       8.871       7.753       6.636       5.523       4.416       3.313       2.211       1.111      1.1000E-02
   3    9.991       8.870       7.749       6.629       5.514       4.409       3.309       2.209       1.110      1.0991E-02
   4    9.991       8.868       7.743       6.618       5.493       4.398       3.303       2.207       1.109      1.0982E-02
   5    9.991       8.866       7.740       6.605       5.445       4.385       3.299       2.206       1.109      1.0978E-02
   6    9.991       8.868       7.744       6.619       5.494       4.399       3.304       2.207       1.109      1.0985E-02
   7    9.991       8.870       7.750       6.631       5.516       4.411       3.310       2.210       1.111      1.0998E-02
   8    9.991       8.873       7.755       6.639       5.527       4.420       3.316       2.213       1.112      1.1011E-02
   9    9.991       8.874       7.758       6.644       5.533       4.425       3.319       2.216       1.113      1.1021E-02
  10    9.991       8.875       7.760       6.647       5.535       4.427       3.321       2.217       1.114      1.1026E-02

 HEAD WILL BE SAVED ON UNIT   51 AT END OF TIME STEP   29, STRESS PERIOD    3
1
  VOLUMETRIC BUDGET FOR ENTIRE MODEL AT END OF TIME STEP   29, STRESS PERIOD   3
  ------------------------------------------------------------------------------

     CUMULATIVE VOLUMES      L**3       RATES FOR THIS TIME STEP      L**3/T
     ------------------                 ------------------------

           IN:                                      IN:
           ---                                      ---
             STORAGE =       25095.8281               STORAGE =           0.0000
       CONSTANT HEAD =           0.0000         CONSTANT HEAD =           0.0000
               WELLS =           0.0000                 WELLS =           0.0000
     HEAD DEP BOUNDS =      709309.4375       HEAD DEP BOUNDS =        5599.5239

            TOTAL IN =      734405.2500              TOTAL IN =        5599.5239

          OUT:                                     OUT:
          ----                                     ----
             STORAGE =           0.0000               STORAGE =           0.0000
       CONSTANT HEAD =           0.0000         CONSTANT HEAD =           0.0000
               WELLS =        2900.0000                 WELLS =         100.0000
     HEAD DEP BOUNDS =      731535.8125       HEAD DEP BOUNDS =        5499.8154

           TOTAL OUT =      734435.8125             TOTAL OUT =        5599.8154

            IN - OUT =         -30.5625              IN - OUT =          -0.2915

 PERCENT DISCREPANCY =          -0.00     PERCENT DISCREPANCY =          -0.01






         TIME SUMMARY AT END OF TIME STEP   29 IN STRESS PERIOD    3
                    SECONDS     MINUTES      HOURS       DAYS        YEARS
                    -----------------------------------------------------------
   TIME STEP LENGTH  86400.      1440.0      24.000      1.0000     2.73785E-03
 STRESS PERIOD TIME 2.50560E+06  41760.      696.00      29.000     7.93977E-02
         TOTAL TIME 1.12320E+07 1.87200E+05  3120.0      130.00     0.35592    
1

 SOLVING FOR HEAD 

 OUTPUT CONTROL FOR STRESS PERIOD    3   TIME STEP   30
    PRINT HEAD FOR ALL LAYERS
    SAVE HEAD FOR ALL LAYERS
    PRINT BUDGET
    SAVE BUDGET
1
              HEAD IN LAYER   1 AT END OF TIME STEP  30 IN STRESS PERIOD    3
  ---------------------------------------------------------------------------

            1           2           3           4           5           6           7           8           9          10
 ........................................................................................................................
   1    9.991       8.872       7.755       6.640       5.528       4.420       3.315       2.213       1.112      1.1006E-02
   2    9.991       8.871       7.753       6.636       5.523       4.416       3.313       2.211       1.111      1.1000E-02
   3    9.991       8.870       7.749       6.629       5.514       4.409       3.309       2.209       1.110      1.0991E-02
   4    9.991       8.868       7.743       6.618       5.493       4.398       3.303       2.207       1.109      1.0982E-02
   5    9.991       8.866       7.740       6.605       5.445       4.385       3.299       2.206       1.109      1.0978E-02
   6    9.991       8.868       7.744       6.619       5.494       4.399       3.304       2.207       1.109      1.0985E-02
   7    9.991       8.870       7.750       6.631       5.516       4.411       3.310       2.210       1.111      1.0998E-02
   8    9.991       8.873       7.755       6.639       5.527       4.420       3.316       2.213       1.112      1.1011E-02
   9    9.991       8.874       7.758       6.644       5.533       4.425       3.319       2.216       1.113      1.1021E-02
  10    9.991       8.875       7.760       6.647       5.535       4.427       3.321       2.217       1.114      1.1026E-02

 HEAD WILL BE SAVED ON UNIT   51 AT END OF TIME STEP   30, STRESS PERIOD    3
1
  VOLUMETRIC BUDGET FOR ENTIRE MODEL AT END OF TIME STEP   30, STRESS PERIOD   3
  ------------------------------------------------------------------------------

     CUMULATIVE VOLUMES      L**3       RATES FOR THIS TIME STEP      L**3/T
     ------------------                 ------------------------

           IN:                                      IN:
           ---                                      ---
             STORAGE =       25095.8281               STORAGE =           0.0000
       CONSTANT HEAD =           0.0000         CONSTANT HEAD =           0.0000
               WELLS =           0.0000                 WELLS =           0.0000
     HEAD DEP BOUNDS =      714908.9375       HEAD DEP BOUNDS =        5599.5239

            TOTAL IN =      740004.7500              TOTAL IN =        5599.5239

          OUT:                                     OUT:
          ----                                     ----
             STORAGE =           0.0000               STORAGE =           0.0000
       CONSTANT HEAD =           0.0000         CONSTANT HEAD =           0.0000
               WELLS =        3000.0000                 WELLS =         100.0000
     HEAD DEP BOUNDS =      737035.6250       HEAD DEP BOUNDS =        5499.8154

           TOTAL OUT =      740035.6250             TOTAL OUT =        5599.8154

            IN - OUT =         -30.8750              IN - OUT =          -0.2915

 PERCENT DISCREPANCY =          -0.00     PERCENT DISCREPANCY =          -0.01






         TIME SUMMARY AT END OF TIME STEP   30 IN STRESS PERIOD    3
                    SECONDS     MINUTES      HOURS       DAYS        YEARS
                    -----------------------------------------------------------
   TIME STEP LENGTH  86400.      1440.0      24.000      1.0000     2.73785E-03
 STRESS PERIOD TIME 2.59200E+06  43200.      720.00      30.000     8.21355E-02
         TOTAL TIME 1.13184E+07 1.88640E+05  3144.0      131.00     0.35866    
1

 SOLVING FOR HEAD 

 OUTPUT CONTROL FOR STRESS PERIOD    3   TIME STEP   31
    PRINT HEAD FOR ALL LAYERS
    SAVE HEAD FOR ALL LAYERS
    PRINT BUDGET
    SAVE BUDGET
1
              HEAD IN LAYER   1 AT END OF TIME STEP  31 IN STRESS PERIOD    3
  ---------------------------------------------------------------------------

            1           2           3           4           5           6           7           8           9          10
 ........................................................................................................................
   1    9.991       8.872       7.755       6.640       5.528       4.420       3.315       2.213       1.112      1.1006E-02
   2    9.991       8.871       7.753       6.636       5.523       4.416       3.313       2.211       1.111      1.1000E-02
   3    9.991       8.870       7.749       6.629       5.514       4.409       3.309       2.209       1.110      1.0991E-02
   4    9.991       8.868       7.743       6.618       5.493       4.398       3.303       2.207       1.109      1.0982E-02
   5    9.991       8.866       7.740       6.605       5.445       4.385       3.299       2.206       1.109      1.0978E-02
   6    9.991       8.868       7.744       6.619       5.494       4.399       3.304       2.207       1.109      1.0985E-02
   7    9.991       8.870       7.750       6.631       5.516       4.411       3.310       2.210       1.111      1.0998E-02
   8    9.991       8.873       7.755       6.639       5.527       4.420       3.316       2.213       1.112      1.1011E-02
   9    9.991       8.874       7.758       6.644       5.533       4.425       3.319       2.216       1.113      1.1021E-02
  10    9.991       8.875       7.760       6.647       5.535       4.427       3.321       2.217       1.114      1.1026E-02

 HEAD WILL BE SAVED ON UNIT   51 AT END OF TIME STEP   31, STRESS PERIOD    3
1
  VOLUMETRIC BUDGET FOR ENTIRE MODEL AT END OF TIME STEP   31, STRESS PERIOD   3
  ------------------------------------------------------------------------------

     CUMULATIVE VOLUMES      L**3       RATES FOR THIS TIME STEP      L**3/T
     ------------------                 ------------------------

           IN:                                      IN:
           ---                                      ---
             STORAGE =       25095.8281               STORAGE =           0.0000
       CONSTANT HEAD =           0.0000         CONSTANT HEAD =           0.0000
               WELLS =           0.0000                 WELLS =           0.0000
     HEAD DEP BOUNDS =      720508.4375       HEAD DEP BOUNDS =        5599.5239

            TOTAL IN =      745604.2500              TOTAL IN =        5599.5239

          OUT:                                     OUT:
          ----                                     ----
             STORAGE =           0.0000               STORAGE =           0.0000
       CONSTANT HEAD =           0.0000         CONSTANT HEAD =           0.0000
               WELLS =        3100.0000                 WELLS =         100.0000
     HEAD DEP BOUNDS =      742535.4375       HEAD DEP BOUNDS =        5499.8154

           TOTAL OUT =      745635.4375             TOTAL OUT =        5599.8154

            IN - OUT =         -31.1875              IN - OUT =          -0.2915

 PERCENT DISCREPANCY =          -0.00     PERCENT DISCREPANCY =          -0.01






         TIME SUMMARY AT END OF TIME STEP   31 IN STRESS PERIOD    3
                    SECONDS     MINUTES      HOURS       DAYS        YEARS
                    -----------------------------------------------------------
   TIME STEP LENGTH  86400.      1440.0      24.000      1.0000     2.73785E-03
 STRESS PERIOD TIME 2.67840E+06  44640.      744.00      31.000     8.48734E-02
         TOTAL TIME 1.14048E+07 1.90080E+05  3168.0      132.00     0.36140    
1

 SOLVING FOR HEAD 

 OUTPUT CONTROL FOR STRESS PERIOD    3   TIME STEP   32
    PRINT HEAD FOR ALL LAYERS
    SAVE HEAD FOR ALL LAYERS
    PRINT BUDGET
    SAVE BUDGET
1
              HEAD IN LAYER   1 AT END OF TIME STEP  32 IN STRESS PERIOD    3
  ---------------------------------------------------------------------------

            1           2           3           4           5           6           7           8           9          10
 ........................................................................................................................
   1    9.991       8.872       7.755       6.640       5.528       4.420       3.315       2.213       1.112      1.1006E-02
   2    9.991       8.871       7.753       6.636       5.523       4.416       3.313       2.211       1.111      1.1000E-02
   3    9.991       8.870       7.749       6.629       5.514       4.409       3.309       2.209       1.110      1.0991E-02
   4    9.991       8.868       7.743       6.618       5.493       4.398       3.303       2.207       1.109      1.0982E-02
   5    9.991       8.866       7.740       6.605       5.445       4.385       3.299       2.206       1.109      1.0978E-02
   6    9.991       8.868       7.744       6.619       5.494       4.399       3.304       2.207       1.109      1.0985E-02
   7    9.991       8.870       7.750       6.631       5.516       4.411       3.310       2.210       1.111      1.0998E-02
   8    9.991       8.873       7.755       6.639       5.527       4.420       3.316       2.213       1.112      1.1011E-02
   9    9.991       8.874       7.758       6.644       5.533       4.425       3.319       2.216       1.113      1.1021E-02
  10    9.991       8.875       7.760       6.647       5.535       4.427       3.321       2.217       1.114      1.1026E-02

 HEAD WILL BE SAVED ON UNIT   51 AT END OF TIME STEP   32, STRESS PERIOD    3
1
  VOLUMETRIC BUDGET FOR ENTIRE MODEL AT END OF TIME STEP   32, STRESS PERIOD   3
  ------------------------------------------------------------------------------

     CUMULATIVE VOLUMES      L**3       RATES FOR THIS TIME STEP      L**3/T
     ------------------                 ------------------------

           IN:                                      IN:
           ---                                      ---
             STORAGE =       25095.8281               STORAGE =           0.0000
       CONSTANT HEAD =           0.0000         CONSTANT HEAD =           0.0000
               WELLS =           0.0000                 WELLS =           0.0000
     HEAD DEP BOUNDS =      726107.9375       HEAD DEP BOUNDS =        5599.5239

            TOTAL IN =      751203.7500              TOTAL IN =        5599.5239

          OUT:                                     OUT:
          ----                                     ----
             STORAGE =           0.0000               STORAGE =           0.0000
       CONSTANT HEAD =           0.0000         CONSTANT HEAD =           0.0000
               WELLS =        3200.0000                 WELLS =         100.0000
     HEAD DEP BOUNDS =      748035.2500       HEAD DEP BOUNDS =        5499.8154

           TOTAL OUT =      751235.2500             TOTAL OUT =        5599.8154

            IN - OUT =         -31.5000              IN - OUT =          -0.2915

 PERCENT DISCREPANCY =          -0.00     PERCENT DISCREPANCY =          -0.01






         TIME SUMMARY AT END OF TIME STEP   32 IN STRESS PERIOD    3
                    SECONDS     MINUTES      HOURS       DAYS        YEARS
                    -----------------------------------------------------------
   TIME STEP LENGTH  86400.      1440.0      24.000      1.0000     2.73785E-03
 STRESS PERIOD TIME 2.76480E+06  46080.      768.00      32.000     8.76112E-02
         TOTAL TIME 1.14912E+07 1.91520E+05  3192.0      133.00     0.36413    
1

 SOLVING FOR HEAD 

 OUTPUT CONTROL FOR STRESS PERIOD    3   TIME STEP   33
    PRINT HEAD FOR ALL LAYERS
    SAVE HEAD FOR ALL LAYERS
    PRINT BUDGET
    SAVE BUDGET
1
              HEAD IN LAYER   1 AT END OF TIME STEP  33 IN STRESS PERIOD    3
  ---------------------------------------------------------------------------

            1           2           3           4           5           6           7           8           9          10
 ........................................................................................................................
   1    9.991       8.872       7.755       6.640       5.528       4.420       3.315       2.213       1.112      1.1006E-02
   2    9.991       8.871       7.753       6.636       5.523       4.416       3.313       2.211       1.111      1.1000E-02
   3    9.991       8.870       7.749       6.629       5.514       4.409       3.309       2.209       1.110      1.0991E-02
   4    9.991       8.868       7.743       6.618       5.493       4.398       3.303       2.207       1.109      1.0982E-02
   5    9.991       8.866       7.740       6.605       5.445       4.385       3.299       2.206       1.109      1.0978E-02
   6    9.991       8.868       7.744       6.619       5.494       4.399       3.304       2.207       1.109      1.0985E-02
   7    9.991       8.870       7.750       6.631       5.516       4.411       3.310       2.210       1.111      1.0998E-02
   8    9.991       8.873       7.755       6.639       5.527       4.420       3.316       2.213       1.112      1.1011E-02
   9    9.991       8.874       7.758       6.644       5.533       4.425       3.319       2.216       1.113      1.1021E-02
  10    9.991       8.875       7.760       6.647       5.535       4.427       3.321       2.217       1.114      1.1026E-02

 HEAD WILL BE SAVED ON UNIT   51 AT END OF TIME STEP   33, STRESS PERIOD    3
1
  VOLUMETRIC BUDGET FOR ENTIRE MODEL AT END OF TIME STEP   33, STRESS PERIOD   3
  ------------------------------------------------------------------------------

     CUMULATIVE VOLUMES      L**3       RATES FOR THIS TIME STEP      L**3/T
     ------------------                 ------------------------

           IN:                                      IN:
           ---                                      ---
             STORAGE =       25095.8281               STORAGE =           0.0000
       CONSTANT HEAD =           0.0000         CONSTANT HEAD =           0.0000
               WELLS =           0.0000                 WELLS =           0.0000
     HEAD DEP BOUNDS =      731707.4375       HEAD DEP BOUNDS =        5599.5239

            TOTAL IN =      756803.2500              TOTAL IN =        5599.5239

          OUT:                                     OUT:
          ----                                     ----
             STORAGE =           0.0000               STORAGE =           0.0000
       CONSTANT HEAD =           0.0000         CONSTANT HEAD =           0.0000
               WELLS =        3300.0000                 WELLS =         100.0000
     HEAD DEP BOUNDS =      753535.0625       HEAD DEP BOUNDS =        5499.8154

           TOTAL OUT =      756835.0625             TOTAL OUT =        5599.8154

            IN - OUT =         -31.8125              IN - OUT =          -0.2915

 PERCENT DISCREPANCY =          -0.00     PERCENT DISCREPANCY =          -0.01






         TIME SUMMARY AT END OF TIME STEP   33 IN STRESS PERIOD    3
                    SECONDS     MINUTES      HOURS       DAYS        YEARS
                    -----------------------------------------------------------
   TIME STEP LENGTH  86400.      1440.0      24.000      1.0000     2.73785E-03
 STRESS PERIOD TIME 2.85120E+06  47520.      792.00      33.000     9.03491E-02
         TOTAL TIME 1.15776E+07 1.92960E+05  3216.0      134.00     0.36687    
1

 SOLVING FOR HEAD 

 OUTPUT CONTROL FOR STRESS PERIOD    3   TIME STEP   34
    PRINT HEAD FOR ALL LAYERS
    SAVE HEAD FOR ALL LAYERS
    PRINT BUDGET
    SAVE BUDGET
1
              HEAD IN LAYER   1 AT END OF TIME STEP  34 IN STRESS PERIOD    3
  ---------------------------------------------------------------------------

            1           2           3           4           5           6           7           8           9          10
 ........................................................................................................................
   1    9.991       8.872       7.755       6.640       5.528       4.420       3.315       2.213       1.112      1.1006E-02
   2    9.991       8.871       7.753       6.636       5.523       4.416       3.313       2.211       1.111      1.1000E-02
   3    9.991       8.870       7.749       6.629       5.514       4.409       3.309       2.209       1.110      1.0991E-02
   4    9.991       8.868       7.743       6.618       5.493       4.398       3.303       2.207       1.109      1.0982E-02
   5    9.991       8.866       7.740       6.605       5.445       4.385       3.299       2.206       1.109      1.0978E-02
   6    9.991       8.868       7.744       6.619       5.494       4.399       3.304       2.207       1.109      1.0985E-02
   7    9.991       8.870       7.750       6.631       5.516       4.411       3.310       2.210       1.111      1.0998E-02
   8    9.991       8.873       7.755       6.639       5.527       4.420       3.316       2.213       1.112      1.1011E-02
   9    9.991       8.874       7.758       6.644       5.533       4.425       3.319       2.216       1.113      1.1021E-02
  10    9.991       8.875       7.760       6.647       5.535       4.427       3.321       2.217       1.114      1.1026E-02

 HEAD WILL BE SAVED ON UNIT   51 AT END OF TIME STEP   34, STRESS PERIOD    3
1
  VOLUMETRIC BUDGET FOR ENTIRE MODEL AT END OF TIME STEP   34, STRESS PERIOD   3
  ------------------------------------------------------------------------------

     CUMULATIVE VOLUMES      L**3       RATES FOR THIS TIME STEP      L**3/T
     ------------------                 ------------------------

           IN:                                      IN:
           ---                                      ---
             STORAGE =       25095.8281               STORAGE =           0.0000
       CONSTANT HEAD =           0.0000         CONSTANT HEAD =           0.0000
               WELLS =           0.0000                 WELLS =           0.0000
     HEAD DEP BOUNDS =      737306.9375       HEAD DEP BOUNDS =        5599.5239

            TOTAL IN =      762402.7500              TOTAL IN =        5599.5239

          OUT:                                     OUT:
          ----                                     ----
             STORAGE =           0.0000               STORAGE =           0.0000
       CONSTANT HEAD =           0.0000         CONSTANT HEAD =           0.0000
               WELLS =        3400.0000                 WELLS =         100.0000
     HEAD DEP BOUNDS =      759034.8750       HEAD DEP BOUNDS =        5499.8154

           TOTAL OUT =      762434.8750             TOTAL OUT =        5599.8154

            IN - OUT =         -32.1250              IN - OUT =          -0.2915

 PERCENT DISCREPANCY =          -0.00     PERCENT DISCREPANCY =          -0.01






         TIME SUMMARY AT END OF TIME STEP   34 IN STRESS PERIOD    3
                    SECONDS     MINUTES      HOURS       DAYS        YEARS
                    -----------------------------------------------------------
   TIME STEP LENGTH  86400.      1440.0      24.000      1.0000     2.73785E-03
 STRESS PERIOD TIME 2.93760E+06  48960.      816.00      34.000     9.30869E-02
         TOTAL TIME 1.16640E+07 1.94400E+05  3240.0      135.00     0.36961    
1

 SOLVING FOR HEAD 

 OUTPUT CONTROL FOR STRESS PERIOD    3   TIME STEP   35
    PRINT HEAD FOR ALL LAYERS
    SAVE HEAD FOR ALL LAYERS
    PRINT BUDGET
    SAVE BUDGET
1
              HEAD IN LAYER   1 AT END OF TIME STEP  35 IN STRESS PERIOD    3
  ---------------------------------------------------------------------------

            1           2           3           4           5           6           7           8           9          10
 ........................................................................................................................
   1    9.991       8.872       7.755       6.640       5.528       4.420       3.315       2.213       1.112      1.1006E-02
   2    9.991       8.871       7.753       6.636       5.523       4.416       3.313       2.211       1.111      1.1000E-02
   3    9.991       8.870       7.749       6.629       5.514       4.409       3.309       2.209       1.110      1.0991E-02
   4    9.991       8.868       7.743       6.618       5.493       4.398       3.303       2.207       1.109      1.0982E-02
   5    9.991       8.866       7.740       6.605       5.445       4.385       3.299       2.206       1.109      1.0978E-02
   6    9.991       8.868       7.744       6.619       5.494       4.399       3.304       2.207       1.109      1.0985E-02
   7    9.991       8.870       7.750       6.631       5.516       4.411       3.310       2.210       1.111      1.0998E-02
   8    9.991       8.873       7.755       6.639       5.527       4.420       3.316       2.213       1.112      1.1011E-02
   9    9.991       8.874       7.758       6.644       5.533       4.425       3.319       2.216       1.113      1.1021E-02
  10    9.991       8.875       7.760       6.647       5.535       4.427       3.321       2.217       1.114      1.1026E-02

 HEAD WILL BE SAVED ON UNIT   51 AT END OF TIME STEP   35, STRESS PERIOD    3
1
  VOLUMETRIC BUDGET FOR ENTIRE MODEL AT END OF TIME STEP   35, STRESS PERIOD   3
  ------------------------------------------------------------------------------

     CUMULATIVE VOLUMES      L**3       RATES FOR THIS TIME STEP      L**3/T
     ------------------                 ------------------------

           IN:                                      IN:
           ---                                      ---
             STORAGE =       25095.8281               STORAGE =           0.0000
       CONSTANT HEAD =           0.0000         CONSTANT HEAD =           0.0000
               WELLS =           0.0000                 WELLS =           0.0000
     HEAD DEP BOUNDS =      742906.4375       HEAD DEP BOUNDS =        5599.5239

            TOTAL IN =      768002.2500              TOTAL IN =        5599.5239

          OUT:                                     OUT:
          ----                                     ----
             STORAGE =           0.0000               STORAGE =           0.0000
       CONSTANT HEAD =           0.0000         CONSTANT HEAD =           0.0000
               WELLS =        3500.0000                 WELLS =         100.0000
     HEAD DEP BOUNDS =      764534.6875       HEAD DEP BOUNDS =        5499.8154

           TOTAL OUT =      768034.6875             TOTAL OUT =        5599.8154

            IN - OUT =         -32.4375              IN - OUT =          -0.2915

 PERCENT DISCREPANCY =          -0.00     PERCENT DISCREPANCY =          -0.01






         TIME SUMMARY AT END OF TIME STEP   35 IN STRESS PERIOD    3
                    SECONDS     MINUTES      HOURS       DAYS        YEARS
                    -----------------------------------------------------------
   TIME STEP LENGTH  86400.      1440.0      24.000      1.0000     2.73785E-03
 STRESS PERIOD TIME 3.02400E+06  50400.      840.00      35.000     9.58248E-02
         TOTAL TIME 1.17504E+07 1.95840E+05  3264.0      136.00     0.37235    
1

 SOLVING FOR HEAD 

 OUTPUT CONTROL FOR STRESS PERIOD    3   TIME STEP   36
    PRINT HEAD FOR ALL LAYERS
    SAVE HEAD FOR ALL LAYERS
    PRINT BUDGET
    SAVE BUDGET
1
              HEAD IN LAYER   1 AT END OF TIME STEP  36 IN STRESS PERIOD    3
  ---------------------------------------------------------------------------

            1           2           3           4           5           6           7           8           9          10
 ........................................................................................................................
   1    9.991       8.872       7.755       6.640       5.528       4.420       3.315       2.213       1.112      1.1006E-02
   2    9.991       8.871       7.753       6.636       5.523       4.416       3.313       2.211       1.111      1.1000E-02
   3    9.991       8.870       7.749       6.629       5.514       4.409       3.309       2.209       1.110      1.0991E-02
   4    9.991       8.868       7.743       6.618       5.493       4.398       3.303       2.207       1.109      1.0982E-02
   5    9.991       8.866       7.740       6.605       5.445       4.385       3.299       2.206       1.109      1.0978E-02
   6    9.991       8.868       7.744       6.619       5.494       4.399       3.304       2.207       1.109      1.0985E-02
   7    9.991       8.870       7.750       6.631       5.516       4.411       3.310       2.210       1.111      1.0998E-02
   8    9.991       8.873       7.755       6.639       5.527       4.420       3.316       2.213       1.112      1.1011E-02
   9    9.991       8.874       7.758       6.644       5.533       4.425       3.319       2.216       1.113      1.1021E-02
  10    9.991       8.875       7.760       6.647       5.535       4.427       3.321       2.217       1.114      1.1026E-02

 HEAD WILL BE SAVED ON UNIT   51 AT END OF TIME STEP   36, STRESS PERIOD    3
1
  VOLUMETRIC BUDGET FOR ENTIRE MODEL AT END OF TIME STEP   36, STRESS PERIOD   3
  ------------------------------------------------------------------------------

     CUMULATIVE VOLUMES      L**3       RATES FOR THIS TIME STEP      L**3/T
     ------------------                 ------------------------

           IN:                                      IN:
           ---                                      ---
             STORAGE =       25095.8281               STORAGE =           0.0000
       CONSTANT HEAD =           0.0000         CONSTANT HEAD =           0.0000
               WELLS =           0.0000                 WELLS =           0.0000
     HEAD DEP BOUNDS =      748505.9375       HEAD DEP BOUNDS =        5599.5239

            TOTAL IN =      773601.7500              TOTAL IN =        5599.5239

          OUT:                                     OUT:
          ----                                     ----
             STORAGE =           0.0000               STORAGE =           0.0000
       CONSTANT HEAD =           0.0000         CONSTANT HEAD =           0.0000
               WELLS =        3600.0000                 WELLS =         100.0000
     HEAD DEP BOUNDS =      770034.5000       HEAD DEP BOUNDS =        5499.8154

           TOTAL OUT =      773634.5000             TOTAL OUT =        5599.8154

            IN - OUT =         -32.7500              IN - OUT =          -0.2915

 PERCENT DISCREPANCY =          -0.00     PERCENT DISCREPANCY =          -0.01






         TIME SUMMARY AT END OF TIME STEP   36 IN STRESS PERIOD    3
                    SECONDS     MINUTES      HOURS       DAYS        YEARS
                    -----------------------------------------------------------
   TIME STEP LENGTH  86400.      1440.0      24.000      1.0000     2.73785E-03
 STRESS PERIOD TIME 3.11040E+06  51840.      864.00      36.000     9.85626E-02
         TOTAL TIME 1.18368E+07 1.97280E+05  3288.0      137.00     0.37509    
1

 SOLVING FOR HEAD 

 OUTPUT CONTROL FOR STRESS PERIOD    3   TIME STEP   37
    PRINT HEAD FOR ALL LAYERS
    SAVE HEAD FOR ALL LAYERS
    PRINT BUDGET
    SAVE BUDGET
1
              HEAD IN LAYER   1 AT END OF TIME STEP  37 IN STRESS PERIOD    3
  ---------------------------------------------------------------------------

            1           2           3           4           5           6           7           8           9          10
 ........................................................................................................................
   1    9.991       8.872       7.755       6.640       5.528       4.420       3.315       2.213       1.112      1.1006E-02
   2    9.991       8.871       7.753       6.636       5.523       4.416       3.313       2.211       1.111      1.1000E-02
   3    9.991       8.870       7.749       6.629       5.514       4.409       3.309       2.209       1.110      1.0991E-02
   4    9.991       8.868       7.743       6.618       5.493       4.398       3.303       2.207       1.109      1.0982E-02
   5    9.991       8.866       7.740       6.605       5.445       4.385       3.299       2.206       1.109      1.0978E-02
   6    9.991       8.868       7.744       6.619       5.494       4.399       3.304       2.207       1.109      1.0985E-02
   7    9.991       8.870       7.750       6.631       5.516       4.411       3.310       2.210       1.111      1.0998E-02
   8    9.991       8.873       7.755       6.639       5.527       4.420       3.316       2.213       1.112      1.1011E-02
   9    9.991       8.874       7.758       6.644       5.533       4.425       3.319       2.216       1.113      1.1021E-02
  10    9.991       8.875       7.760       6.647       5.535       4.427       3.321       2.217       1.114      1.1026E-02

 HEAD WILL BE SAVED ON UNIT   51 AT END OF TIME STEP   37, STRESS PERIOD    3
1
  VOLUMETRIC BUDGET FOR ENTIRE MODEL AT END OF TIME STEP   37, STRESS PERIOD   3
  ------------------------------------------------------------------------------

     CUMULATIVE VOLUMES      L**3       RATES FOR THIS TIME STEP      L**3/T
     ------------------                 ------------------------

           IN:                                      IN:
           ---                                      ---
             STORAGE =       25095.8281               STORAGE =           0.0000
       CONSTANT HEAD =           0.0000         CONSTANT HEAD =           0.0000
               WELLS =           0.0000                 WELLS =           0.0000
     HEAD DEP BOUNDS =      754105.4375       HEAD DEP BOUNDS =        5599.5239

            TOTAL IN =      779201.2500              TOTAL IN =        5599.5239

          OUT:                                     OUT:
          ----                                     ----
             STORAGE =           0.0000               STORAGE =           0.0000
       CONSTANT HEAD =           0.0000         CONSTANT HEAD =           0.0000
               WELLS =        3700.0000                 WELLS =         100.0000
     HEAD DEP BOUNDS =      775534.3125       HEAD DEP BOUNDS =        5499.8154

           TOTAL OUT =      779234.3125             TOTAL OUT =        5599.8154

            IN - OUT =         -33.0625              IN - OUT =          -0.2915

 PERCENT DISCREPANCY =          -0.00     PERCENT DISCREPANCY =          -0.01






         TIME SUMMARY AT END OF TIME STEP   37 IN STRESS PERIOD    3
                    SECONDS     MINUTES      HOURS       DAYS        YEARS
                    -----------------------------------------------------------
   TIME STEP LENGTH  86400.      1440.0      24.000      1.0000     2.73785E-03
 STRESS PERIOD TIME 3.19680E+06  53280.      888.00      37.000     0.10130    
         TOTAL TIME 1.19232E+07 1.98720E+05  3312.0      138.00     0.37782    
1

 SOLVING FOR HEAD 

 OUTPUT CONTROL FOR STRESS PERIOD    3   TIME STEP   38
    PRINT HEAD FOR ALL LAYERS
    SAVE HEAD FOR ALL LAYERS
    PRINT BUDGET
    SAVE BUDGET
1
              HEAD IN LAYER   1 AT END OF TIME STEP  38 IN STRESS PERIOD    3
  ---------------------------------------------------------------------------

            1           2           3           4           5           6           7           8           9          10
 ........................................................................................................................
   1    9.991       8.872       7.755       6.640       5.528       4.420       3.315       2.213       1.112      1.1006E-02
   2    9.991       8.871       7.753       6.636       5.523       4.416       3.313       2.211       1.111      1.1000E-02
   3    9.991       8.870       7.749       6.629       5.514       4.409       3.309       2.209       1.110      1.0991E-02
   4    9.991       8.868       7.743       6.618       5.493       4.398       3.303       2.207       1.109      1.0982E-02
   5    9.991       8.866       7.740       6.605       5.445       4.385       3.299       2.206       1.109      1.0978E-02
   6    9.991       8.868       7.744       6.619       5.494       4.399       3.304       2.207       1.109      1.0985E-02
   7    9.991       8.870       7.750       6.631       5.516       4.411       3.310       2.210       1.111      1.0998E-02
   8    9.991       8.873       7.755       6.639       5.527       4.420       3.316       2.213       1.112      1.1011E-02
   9    9.991       8.874       7.758       6.644       5.533       4.425       3.319       2.216       1.113      1.1021E-02
  10    9.991       8.875       7.760       6.647       5.535       4.427       3.321       2.217       1.114      1.1026E-02

 HEAD WILL BE SAVED ON UNIT   51 AT END OF TIME STEP   38, STRESS PERIOD    3
1
  VOLUMETRIC BUDGET FOR ENTIRE MODEL AT END OF TIME STEP   38, STRESS PERIOD   3
  ------------------------------------------------------------------------------

     CUMULATIVE VOLUMES      L**3       RATES FOR THIS TIME STEP      L**3/T
     ------------------                 ------------------------

           IN:                                      IN:
           ---                                      ---
             STORAGE =       25095.8281               STORAGE =           0.0000
       CONSTANT HEAD =           0.0000         CONSTANT HEAD =           0.0000
               WELLS =           0.0000                 WELLS =           0.0000
     HEAD DEP BOUNDS =      759704.9375       HEAD DEP BOUNDS =        5599.5239

            TOTAL IN =      784800.7500              TOTAL IN =        5599.5239

          OUT:                                     OUT:
          ----                                     ----
             STORAGE =           0.0000               STORAGE =           0.0000
       CONSTANT HEAD =           0.0000         CONSTANT HEAD =           0.0000
               WELLS =        3800.0000                 WELLS =         100.0000
     HEAD DEP BOUNDS =      781034.1250       HEAD DEP BOUNDS =        5499.8154

           TOTAL OUT =      784834.1250             TOTAL OUT =        5599.8154

            IN - OUT =         -33.3750              IN - OUT =          -0.2915

 PERCENT DISCREPANCY =          -0.00     PERCENT DISCREPANCY =          -0.01






         TIME SUMMARY AT END OF TIME STEP   38 IN STRESS PERIOD    3
                    SECONDS     MINUTES      HOURS       DAYS        YEARS
                    -----------------------------------------------------------
   TIME STEP LENGTH  86400.      1440.0      24.000      1.0000     2.73785E-03
 STRESS PERIOD TIME 3.28320E+06  54720.      912.00      38.000     0.10404    
         TOTAL TIME 1.20096E+07 2.00160E+05  3336.0      139.00     0.38056    
1

 SOLVING FOR HEAD 

 OUTPUT CONTROL FOR STRESS PERIOD    3   TIME STEP   39
    PRINT HEAD FOR ALL LAYERS
    SAVE HEAD FOR ALL LAYERS
    PRINT BUDGET
    SAVE BUDGET
1
              HEAD IN LAYER   1 AT END OF TIME STEP  39 IN STRESS PERIOD    3
  ---------------------------------------------------------------------------

            1           2           3           4           5           6           7           8           9          10
 ........................................................................................................................
   1    9.991       8.872       7.755       6.640       5.528       4.420       3.315       2.213       1.112      1.1006E-02
   2    9.991       8.871       7.753       6.636       5.523       4.416       3.313       2.211       1.111      1.1000E-02
   3    9.991       8.870       7.749       6.629       5.514       4.409       3.309       2.209       1.110      1.0991E-02
   4    9.991       8.868       7.743       6.618       5.493       4.398       3.303       2.207       1.109      1.0982E-02
   5    9.991       8.866       7.740       6.605       5.445       4.385       3.299       2.206       1.109      1.0978E-02
   6    9.991       8.868       7.744       6.619       5.494       4.399       3.304       2.207       1.109      1.0985E-02
   7    9.991       8.870       7.750       6.631       5.516       4.411       3.310       2.210       1.111      1.0998E-02
   8    9.991       8.873       7.755       6.639       5.527       4.420       3.316       2.213       1.112      1.1011E-02
   9    9.991       8.874       7.758       6.644       5.533       4.425       3.319       2.216       1.113      1.1021E-02
  10    9.991       8.875       7.760       6.647       5.535       4.427       3.321       2.217       1.114      1.1026E-02

 HEAD WILL BE SAVED ON UNIT   51 AT END OF TIME STEP   39, STRESS PERIOD    3
1
  VOLUMETRIC BUDGET FOR ENTIRE MODEL AT END OF TIME STEP   39, STRESS PERIOD   3
  ------------------------------------------------------------------------------

     CUMULATIVE VOLUMES      L**3       RATES FOR THIS TIME STEP      L**3/T
     ------------------                 ------------------------

           IN:                                      IN:
           ---                                      ---
             STORAGE =       25095.8281               STORAGE =           0.0000
       CONSTANT HEAD =           0.0000         CONSTANT HEAD =           0.0000
               WELLS =           0.0000                 WELLS =           0.0000
     HEAD DEP BOUNDS =      765304.4375       HEAD DEP BOUNDS =        5599.5239

            TOTAL IN =      790400.2500              TOTAL IN =        5599.5239

          OUT:                                     OUT:
          ----                                     ----
             STORAGE =           0.0000               STORAGE =           0.0000
       CONSTANT HEAD =           0.0000         CONSTANT HEAD =           0.0000
               WELLS =        3900.0000                 WELLS =         100.0000
     HEAD DEP BOUNDS =      786533.9375       HEAD DEP BOUNDS =        5499.8154

           TOTAL OUT =      790433.9375             TOTAL OUT =        5599.8154

            IN - OUT =         -33.6875              IN - OUT =          -0.2915

 PERCENT DISCREPANCY =          -0.00     PERCENT DISCREPANCY =          -0.01






         TIME SUMMARY AT END OF TIME STEP   39 IN STRESS PERIOD    3
                    SECONDS     MINUTES      HOURS       DAYS        YEARS
                    -----------------------------------------------------------
   TIME STEP LENGTH  86400.      1440.0      24.000      1.0000     2.73785E-03
 STRESS PERIOD TIME 3.36960E+06  56160.      936.00      39.000     0.10678    
         TOTAL TIME 1.20960E+07 2.01600E+05  3360.0      140.00     0.38330    
1

 SOLVING FOR HEAD 

 OUTPUT CONTROL FOR STRESS PERIOD    3   TIME STEP   40
    PRINT HEAD FOR ALL LAYERS
    SAVE HEAD FOR ALL LAYERS
    PRINT BUDGET
    SAVE BUDGET
1
              HEAD IN LAYER   1 AT END OF TIME STEP  40 IN STRESS PERIOD    3
  ---------------------------------------------------------------------------

            1           2           3           4           5           6           7           8           9          10
 ........................................................................................................................
   1    9.991       8.872       7.755       6.640       5.528       4.420       3.315       2.213       1.112      1.1006E-02
   2    9.991       8.871       7.753       6.636       5.523       4.416       3.313       2.211       1.111      1.1000E-02
   3    9.991       8.870       7.749       6.629       5.514       4.409       3.309       2.209       1.110      1.0991E-02
   4    9.991       8.868       7.743       6.618       5.493       4.398       3.303       2.207       1.109      1.0982E-02
   5    9.991       8.866       7.740       6.605       5.445       4.385       3.299       2.206       1.109      1.0978E-02
   6    9.991       8.868       7.744       6.619       5.494       4.399       3.304       2.207       1.109      1.0985E-02
   7    9.991       8.870       7.750       6.631       5.516       4.411       3.310       2.210       1.111      1.0998E-02
   8    9.991       8.873       7.755       6.639       5.527       4.420       3.316       2.213       1.112      1.1011E-02
   9    9.991       8.874       7.758       6.644       5.533       4.425       3.319       2.216       1.113      1.1021E-02
  10    9.991       8.875       7.760       6.647       5.535       4.427       3.321       2.217       1.114      1.1026E-02

 HEAD WILL BE SAVED ON UNIT   51 AT END OF TIME STEP   40, STRESS PERIOD    3
1
  VOLUMETRIC BUDGET FOR ENTIRE MODEL AT END OF TIME STEP   40, STRESS PERIOD   3
  ------------------------------------------------------------------------------

     CUMULATIVE VOLUMES      L**3       RATES FOR THIS TIME STEP      L**3/T
     ------------------                 ------------------------

           IN:                                      IN:
           ---                                      ---
             STORAGE =       25095.8281               STORAGE =           0.0000
       CONSTANT HEAD =           0.0000         CONSTANT HEAD =           0.0000
               WELLS =           0.0000                 WELLS =           0.0000
     HEAD DEP BOUNDS =      770903.9375       HEAD DEP BOUNDS =        5599.5239

            TOTAL IN =      795999.7500              TOTAL IN =        5599.5239

          OUT:                                     OUT:
          ----                                     ----
             STORAGE =           0.0000               STORAGE =           0.0000
       CONSTANT HEAD =           0.0000         CONSTANT HEAD =           0.0000
               WELLS =        4000.0000                 WELLS =         100.0000
     HEAD DEP BOUNDS =      792033.7500       HEAD DEP BOUNDS =        5499.8154

           TOTAL OUT =      796033.7500             TOTAL OUT =        5599.8154

            IN - OUT =         -34.0000              IN - OUT =          -0.2915

 PERCENT DISCREPANCY =          -0.00     PERCENT DISCREPANCY =          -0.01






         TIME SUMMARY AT END OF TIME STEP   40 IN STRESS PERIOD    3
                    SECONDS     MINUTES      HOURS       DAYS        YEARS
                    -----------------------------------------------------------
   TIME STEP LENGTH  86400.      1440.0      24.000      1.0000     2.73785E-03
 STRESS PERIOD TIME 3.45600E+06  57600.      960.00      40.000     0.10951    
         TOTAL TIME 1.21824E+07 2.03040E+05  3384.0      141.00     0.38604    
1

 SOLVING FOR HEAD 

 OUTPUT CONTROL FOR STRESS PERIOD    3   TIME STEP   41
    PRINT HEAD FOR ALL LAYERS
    SAVE HEAD FOR ALL LAYERS
    PRINT BUDGET
    SAVE BUDGET
1
              HEAD IN LAYER   1 AT END OF TIME STEP  41 IN STRESS PERIOD    3
  ---------------------------------------------------------------------------

            1           2           3           4           5           6           7           8           9          10
 ........................................................................................................................
   1    9.991       8.872       7.755       6.640       5.528       4.420       3.315       2.213       1.112      1.1006E-02
   2    9.991       8.871       7.753       6.636       5.523       4.416       3.313       2.211       1.111      1.1000E-02
   3    9.991       8.870       7.749       6.629       5.514       4.409       3.309       2.209       1.110      1.0991E-02
   4    9.991       8.868       7.743       6.618       5.493       4.398       3.303       2.207       1.109      1.0982E-02
   5    9.991       8.866       7.740       6.605       5.445       4.385       3.299       2.206       1.109      1.0978E-02
   6    9.991       8.868       7.744       6.619       5.494       4.399       3.304       2.207       1.109      1.0985E-02
   7    9.991       8.870       7.750       6.631       5.516       4.411       3.310       2.210       1.111      1.0998E-02
   8    9.991       8.873       7.755       6.639       5.527       4.420       3.316       2.213       1.112      1.1011E-02
   9    9.991       8.874       7.758       6.644       5.533       4.425       3.319       2.216       1.113      1.1021E-02
  10    9.991       8.875       7.760       6.647       5.535       4.427       3.321       2.217       1.114      1.1026E-02

 HEAD WILL BE SAVED ON UNIT   51 AT END OF TIME STEP   41, STRESS PERIOD    3
1
  VOLUMETRIC BUDGET FOR ENTIRE MODEL AT END OF TIME STEP   41, STRESS PERIOD   3
  ------------------------------------------------------------------------------

     CUMULATIVE VOLUMES      L**3       RATES FOR THIS TIME STEP      L**3/T
     ------------------                 ------------------------

           IN:                                      IN:
           ---                                      ---
             STORAGE =       25095.8281               STORAGE =           0.0000
       CONSTANT HEAD =           0.0000         CONSTANT HEAD =           0.0000
               WELLS =           0.0000                 WELLS =           0.0000
     HEAD DEP BOUNDS =      776503.4375       HEAD DEP BOUNDS =        5599.5239

            TOTAL IN =      801599.2500              TOTAL IN =        5599.5239

          OUT:                                     OUT:
          ----                                     ----
             STORAGE =           0.0000               STORAGE =           0.0000
       CONSTANT HEAD =           0.0000         CONSTANT HEAD =           0.0000
               WELLS =        4100.0000                 WELLS =         100.0000
     HEAD DEP BOUNDS =      797533.5625       HEAD DEP BOUNDS =        5499.8154

           TOTAL OUT =      801633.5625             TOTAL OUT =        5599.8154

            IN - OUT =         -34.3125              IN - OUT =          -0.2915

 PERCENT DISCREPANCY =          -0.00     PERCENT DISCREPANCY =          -0.01






         TIME SUMMARY AT END OF TIME STEP   41 IN STRESS PERIOD    3
                    SECONDS     MINUTES      HOURS       DAYS        YEARS
                    -----------------------------------------------------------
   TIME STEP LENGTH  86400.      1440.0      24.000      1.0000     2.73785E-03
 STRESS PERIOD TIME 3.54240E+06  59040.      984.00      41.000     0.11225    
         TOTAL TIME 1.22688E+07 2.04480E+05  3408.0      142.00     0.38877    
1

 SOLVING FOR HEAD 

 OUTPUT CONTROL FOR STRESS PERIOD    3   TIME STEP   42
    PRINT HEAD FOR ALL LAYERS
    SAVE HEAD FOR ALL LAYERS
    PRINT BUDGET
    SAVE BUDGET
1
              HEAD IN LAYER   1 AT END OF TIME STEP  42 IN STRESS PERIOD    3
  ---------------------------------------------------------------------------

            1           2           3           4           5           6           7           8           9          10
 ........................................................................................................................
   1    9.991       8.872       7.755       6.640       5.528       4.420       3.315       2.213       1.112      1.1006E-02
   2    9.991       8.871       7.753       6.636       5.523       4.416       3.313       2.211       1.111      1.1000E-02
   3    9.991       8.870       7.749       6.629       5.514       4.409       3.309       2.209       1.110      1.0991E-02
   4    9.991       8.868       7.743       6.618       5.493       4.398       3.303       2.207       1.109      1.0982E-02
   5    9.991       8.866       7.740       6.605       5.445       4.385       3.299       2.206       1.109      1.0978E-02
   6    9.991       8.868       7.744       6.619       5.494       4.399       3.304       2.207       1.109      1.0985E-02
   7    9.991       8.870       7.750       6.631       5.516       4.411       3.310       2.210       1.111      1.0998E-02
   8    9.991       8.873       7.755       6.639       5.527       4.420       3.316       2.213       1.112      1.1011E-02
   9    9.991       8.874       7.758       6.644       5.533       4.425       3.319       2.216       1.113      1.1021E-02
  10    9.991       8.875       7.760       6.647       5.535       4.427       3.321       2.217       1.114      1.1026E-02

 HEAD WILL BE SAVED ON UNIT   51 AT END OF TIME STEP   42, STRESS PERIOD    3
1
  VOLUMETRIC BUDGET FOR ENTIRE MODEL AT END OF TIME STEP   42, STRESS PERIOD   3
  ------------------------------------------------------------------------------

     CUMULATIVE VOLUMES      L**3       RATES FOR THIS TIME STEP      L**3/T
     ------------------                 ------------------------

           IN:                                      IN:
           ---                                      ---
             STORAGE =       25095.8281               STORAGE =           0.0000
       CONSTANT HEAD =           0.0000         CONSTANT HEAD =           0.0000
               WELLS =           0.0000                 WELLS =           0.0000
     HEAD DEP BOUNDS =      782102.9375       HEAD DEP BOUNDS =        5599.5239

            TOTAL IN =      807198.7500              TOTAL IN =        5599.5239

          OUT:                                     OUT:
          ----                                     ----
             STORAGE =           0.0000               STORAGE =           0.0000
       CONSTANT HEAD =           0.0000         CONSTANT HEAD =           0.0000
               WELLS =        4200.0000                 WELLS =         100.0000
     HEAD DEP BOUNDS =      803033.3750       HEAD DEP BOUNDS =        5499.8154

           TOTAL OUT =      807233.3750             TOTAL OUT =        5599.8154

            IN - OUT =         -34.6250              IN - OUT =          -0.2915

 PERCENT DISCREPANCY =          -0.00     PERCENT DISCREPANCY =          -0.01






         TIME SUMMARY AT END OF TIME STEP   42 IN STRESS PERIOD    3
                    SECONDS     MINUTES      HOURS       DAYS        YEARS
                    -----------------------------------------------------------
   TIME STEP LENGTH  86400.      1440.0      24.000      1.0000     2.73785E-03
 STRESS PERIOD TIME 3.62880E+06  60480.      1008.0      42.000     0.11499    
         TOTAL TIME 1.23552E+07 2.05920E+05  3432.0      143.00     0.39151    
1

 SOLVING FOR HEAD 

 OUTPUT CONTROL FOR STRESS PERIOD    3   TIME STEP   43
    PRINT HEAD FOR ALL LAYERS
    SAVE HEAD FOR ALL LAYERS
    PRINT BUDGET
    SAVE BUDGET
1
              HEAD IN LAYER   1 AT END OF TIME STEP  43 IN STRESS PERIOD    3
  ---------------------------------------------------------------------------

            1           2           3           4           5           6           7           8           9          10
 ........................................................................................................................
   1    9.991       8.872       7.755       6.640       5.528       4.420       3.315       2.213       1.112      1.1006E-02
   2    9.991       8.871       7.753       6.636       5.523       4.416       3.313       2.211       1.111      1.1000E-02
   3    9.991       8.870       7.749       6.629       5.514       4.409       3.309       2.209       1.110      1.0991E-02
   4    9.991       8.868       7.743       6.618       5.493       4.398       3.303       2.207       1.109      1.0982E-02
   5    9.991       8.866       7.740       6.605       5.445       4.385       3.299       2.206       1.109      1.0978E-02
   6    9.991       8.868       7.744       6.619       5.494       4.399       3.304       2.207       1.109      1.0985E-02
   7    9.991       8.870       7.750       6.631       5.516       4.411       3.310       2.210       1.111      1.0998E-02
   8    9.991       8.873       7.755       6.639       5.527       4.420       3.316       2.213       1.112      1.1011E-02
   9    9.991       8.874       7.758       6.644       5.533       4.425       3.319       2.216       1.113      1.1021E-02
  10    9.991       8.875       7.760       6.647       5.535       4.427       3.321       2.217       1.114      1.1026E-02

 HEAD WILL BE SAVED ON UNIT   51 AT END OF TIME STEP   43, STRESS PERIOD    3
1
  VOLUMETRIC BUDGET FOR ENTIRE MODEL AT END OF TIME STEP   43, STRESS PERIOD   3
  ------------------------------------------------------------------------------

     CUMULATIVE VOLUMES      L**3       RATES FOR THIS TIME STEP      L**3/T
     ------------------                 ------------------------

           IN:                                      IN:
           ---                                      ---
             STORAGE =       25095.8281               STORAGE =           0.0000
       CONSTANT HEAD =           0.0000         CONSTANT HEAD =           0.0000
               WELLS =           0.0000                 WELLS =           0.0000
     HEAD DEP BOUNDS =      787702.4375       HEAD DEP BOUNDS =        5599.5239

            TOTAL IN =      812798.2500              TOTAL IN =        5599.5239

          OUT:                                     OUT:
          ----                                     ----
             STORAGE =           0.0000               STORAGE =           0.0000
       CONSTANT HEAD =           0.0000         CONSTANT HEAD =           0.0000
               WELLS =        4300.0000                 WELLS =         100.0000
     HEAD DEP BOUNDS =      808533.1875       HEAD DEP BOUNDS =        5499.8154

           TOTAL OUT =      812833.1875             TOTAL OUT =        5599.8154

            IN - OUT =         -34.9375              IN - OUT =          -0.2915

 PERCENT DISCREPANCY =          -0.00     PERCENT DISCREPANCY =          -0.01






         TIME SUMMARY AT END OF TIME STEP   43 IN STRESS PERIOD    3
                    SECONDS     MINUTES      HOURS       DAYS        YEARS
                    -----------------------------------------------------------
   TIME STEP LENGTH  86400.      1440.0      24.000      1.0000     2.73785E-03
 STRESS PERIOD TIME 3.71520E+06  61920.      1032.0      43.000     0.11773    
         TOTAL TIME 1.24416E+07 2.07360E+05  3456.0      144.00     0.39425    
1

 SOLVING FOR HEAD 

 OUTPUT CONTROL FOR STRESS PERIOD    3   TIME STEP   44
    PRINT HEAD FOR ALL LAYERS
    SAVE HEAD FOR ALL LAYERS
    PRINT BUDGET
    SAVE BUDGET
1
              HEAD IN LAYER   1 AT END OF TIME STEP  44 IN STRESS PERIOD    3
  ---------------------------------------------------------------------------

            1           2           3           4           5           6           7           8           9          10
 ........................................................................................................................
   1    9.991       8.872       7.755       6.640       5.528       4.420       3.315       2.213       1.112      1.1006E-02
   2    9.991       8.871       7.753       6.636       5.523       4.416       3.313       2.211       1.111      1.1000E-02
   3    9.991       8.870       7.749       6.629       5.514       4.409       3.309       2.209       1.110      1.0991E-02
   4    9.991       8.868       7.743       6.618       5.493       4.398       3.303       2.207       1.109      1.0982E-02
   5    9.991       8.866       7.740       6.605       5.445       4.385       3.299       2.206       1.109      1.0978E-02
   6    9.991       8.868       7.744       6.619       5.494       4.399       3.304       2.207       1.109      1.0985E-02
   7    9.991       8.870       7.750       6.631       5.516       4.411       3.310       2.210       1.111      1.0998E-02
   8    9.991       8.873       7.755       6.639       5.527       4.420       3.316       2.213       1.112      1.1011E-02
   9    9.991       8.874       7.758       6.644       5.533       4.425       3.319       2.216       1.113      1.1021E-02
  10    9.991       8.875       7.760       6.647       5.535       4.427       3.321       2.217       1.114      1.1026E-02

 HEAD WILL BE SAVED ON UNIT   51 AT END OF TIME STEP   44, STRESS PERIOD    3
1
  VOLUMETRIC BUDGET FOR ENTIRE MODEL AT END OF TIME STEP   44, STRESS PERIOD   3
  ------------------------------------------------------------------------------

     CUMULATIVE VOLUMES      L**3       RATES FOR THIS TIME STEP      L**3/T
     ------------------                 ------------------------

           IN:                                      IN:
           ---                                      ---
             STORAGE =       25095.8281               STORAGE =           0.0000
       CONSTANT HEAD =           0.0000         CONSTANT HEAD =           0.0000
               WELLS =           0.0000                 WELLS =           0.0000
     HEAD DEP BOUNDS =      793301.9375       HEAD DEP BOUNDS =        5599.5239

            TOTAL IN =      818397.7500              TOTAL IN =        5599.5239

          OUT:                                     OUT:
          ----                                     ----
             STORAGE =           0.0000               STORAGE =           0.0000
       CONSTANT HEAD =           0.0000         CONSTANT HEAD =           0.0000
               WELLS =        4400.0000                 WELLS =         100.0000
     HEAD DEP BOUNDS =      814033.0000       HEAD DEP BOUNDS =        5499.8154

           TOTAL OUT =      818433.0000             TOTAL OUT =        5599.8154

            IN - OUT =         -35.2500              IN - OUT =          -0.2915

 PERCENT DISCREPANCY =          -0.00     PERCENT DISCREPANCY =          -0.01






         TIME SUMMARY AT END OF TIME STEP   44 IN STRESS PERIOD    3
                    SECONDS     MINUTES      HOURS       DAYS        YEARS
                    -----------------------------------------------------------
   TIME STEP LENGTH  86400.      1440.0      24.000      1.0000     2.73785E-03
 STRESS PERIOD TIME 3.80160E+06  63360.      1056.0      44.000     0.12047    
         TOTAL TIME 1.25280E+07 2.08800E+05  3480.0      145.00     0.39699    
1

 SOLVING FOR HEAD 

 OUTPUT CONTROL FOR STRESS PERIOD    3   TIME STEP   45
    PRINT HEAD FOR ALL LAYERS
    SAVE HEAD FOR ALL LAYERS
    PRINT BUDGET
    SAVE BUDGET
1
              HEAD IN LAYER   1 AT END OF TIME STEP  45 IN STRESS PERIOD    3
  ---------------------------------------------------------------------------

            1           2           3           4           5           6           7           8           9          10
 ........................................................................................................................
   1    9.991       8.872       7.755       6.640       5.528       4.420       3.315       2.213       1.112      1.1006E-02
   2    9.991       8.871       7.753       6.636       5.523       4.416       3.313       2.211       1.111      1.1000E-02
   3    9.991       8.870       7.749       6.629       5.514       4.409       3.309       2.209       1.110      1.0991E-02
   4    9.991       8.868       7.743       6.618       5.493       4.398       3.303       2.207       1.109      1.0982E-02
   5    9.991       8.866       7.740       6.605       5.445       4.385       3.299       2.206       1.109      1.0978E-02
   6    9.991       8.868       7.744       6.619       5.494       4.399       3.304       2.207       1.109      1.0985E-02
   7    9.991       8.870       7.750       6.631       5.516       4.411       3.310       2.210       1.111      1.0998E-02
   8    9.991       8.873       7.755       6.639       5.527       4.420       3.316       2.213       1.112      1.1011E-02
   9    9.991       8.874       7.758       6.644       5.533       4.425       3.319       2.216       1.113      1.1021E-02
  10    9.991       8.875       7.760       6.647       5.535       4.427       3.321       2.217       1.114      1.1026E-02

 HEAD WILL BE SAVED ON UNIT   51 AT END OF TIME STEP   45, STRESS PERIOD    3
1
  VOLUMETRIC BUDGET FOR ENTIRE MODEL AT END OF TIME STEP   45, STRESS PERIOD   3
  ------------------------------------------------------------------------------

     CUMULATIVE VOLUMES      L**3       RATES FOR THIS TIME STEP      L**3/T
     ------------------                 ------------------------

           IN:                                      IN:
           ---                                      ---
             STORAGE =       25095.8281               STORAGE =           0.0000
       CONSTANT HEAD =           0.0000         CONSTANT HEAD =           0.0000
               WELLS =           0.0000                 WELLS =           0.0000
     HEAD DEP BOUNDS =      798901.4375       HEAD DEP BOUNDS =        5599.5239

            TOTAL IN =      823997.2500              TOTAL IN =        5599.5239

          OUT:                                     OUT:
          ----                                     ----
             STORAGE =           0.0000               STORAGE =           0.0000
       CONSTANT HEAD =           0.0000         CONSTANT HEAD =           0.0000
               WELLS =        4500.0000                 WELLS =         100.0000
     HEAD DEP BOUNDS =      819532.8125       HEAD DEP BOUNDS =        5499.8154

           TOTAL OUT =      824032.8125             TOTAL OUT =        5599.8154

            IN - OUT =         -35.5625              IN - OUT =          -0.2915

 PERCENT DISCREPANCY =          -0.00     PERCENT DISCREPANCY =          -0.01






         TIME SUMMARY AT END OF TIME STEP   45 IN STRESS PERIOD    3
                    SECONDS     MINUTES      HOURS       DAYS        YEARS
                    -----------------------------------------------------------
   TIME STEP LENGTH  86400.      1440.0      24.000      1.0000     2.73785E-03
 STRESS PERIOD TIME 3.88800E+06  64800.      1080.0      45.000     0.12320    
         TOTAL TIME 1.26144E+07 2.10240E+05  3504.0      146.00     0.39973    
1

 SOLVING FOR HEAD 

 OUTPUT CONTROL FOR STRESS PERIOD    3   TIME STEP   46
    PRINT HEAD FOR ALL LAYERS
    SAVE HEAD FOR ALL LAYERS
    PRINT BUDGET
    SAVE BUDGET
1
              HEAD IN LAYER   1 AT END OF TIME STEP  46 IN STRESS PERIOD    3
  ---------------------------------------------------------------------------

            1           2           3           4           5           6           7           8           9          10
 ........................................................................................................................
   1    9.991       8.872       7.755       6.640       5.528       4.420       3.315       2.213       1.112      1.1006E-02
   2    9.991       8.871       7.753       6.636       5.523       4.416       3.313       2.211       1.111      1.1000E-02
   3    9.991       8.870       7.749       6.629       5.514       4.409       3.309       2.209       1.110      1.0991E-02
   4    9.991       8.868       7.743       6.618       5.493       4.398       3.303       2.207       1.109      1.0982E-02
   5    9.991       8.866       7.740       6.605       5.445       4.385       3.299       2.206       1.109      1.0978E-02
   6    9.991       8.868       7.744       6.619       5.494       4.399       3.304       2.207       1.109      1.0985E-02
   7    9.991       8.870       7.750       6.631       5.516       4.411       3.310       2.210       1.111      1.0998E-02
   8    9.991       8.873       7.755       6.639       5.527       4.420       3.316       2.213       1.112      1.1011E-02
   9    9.991       8.874       7.758       6.644       5.533       4.425       3.319       2.216       1.113      1.1021E-02
  10    9.991       8.875       7.760       6.647       5.535       4.427       3.321       2.217       1.114      1.1026E-02

 HEAD WILL BE SAVED ON UNIT   51 AT END OF TIME STEP   46, STRESS PERIOD    3
1
  VOLUMETRIC BUDGET FOR ENTIRE MODEL AT END OF TIME STEP   46, STRESS PERIOD   3
  ------------------------------------------------------------------------------

     CUMULATIVE VOLUMES      L**3       RATES FOR THIS TIME STEP      L**3/T
     ------------------                 ------------------------

           IN:                                      IN:
           ---                                      ---
             STORAGE =       25095.8281               STORAGE =           0.0000
       CONSTANT HEAD =           0.0000         CONSTANT HEAD =           0.0000
               WELLS =           0.0000                 WELLS =           0.0000
     HEAD DEP BOUNDS =      804500.9375       HEAD DEP BOUNDS =        5599.5239

            TOTAL IN =      829596.7500              TOTAL IN =        5599.5239

          OUT:                                     OUT:
          ----                                     ----
             STORAGE =           0.0000               STORAGE =           0.0000
       CONSTANT HEAD =           0.0000         CONSTANT HEAD =           0.0000
               WELLS =        4600.0000                 WELLS =         100.0000
     HEAD DEP BOUNDS =      825032.6250       HEAD DEP BOUNDS =        5499.8154

           TOTAL OUT =      829632.6250             TOTAL OUT =        5599.8154

            IN - OUT =         -35.8750              IN - OUT =          -0.2915

 PERCENT DISCREPANCY =          -0.00     PERCENT DISCREPANCY =          -0.01






         TIME SUMMARY AT END OF TIME STEP   46 IN STRESS PERIOD    3
                    SECONDS     MINUTES      HOURS       DAYS        YEARS
                    -----------------------------------------------------------
   TIME STEP LENGTH  86400.      1440.0      24.000      1.0000     2.73785E-03
 STRESS PERIOD TIME 3.97440E+06  66240.      1104.0      46.000     0.12594    
         TOTAL TIME 1.27008E+07 2.11680E+05  3528.0      147.00     0.40246    
1

 SOLVING FOR HEAD 

 OUTPUT CONTROL FOR STRESS PERIOD    3   TIME STEP   47
    PRINT HEAD FOR ALL LAYERS
    SAVE HEAD FOR ALL LAYERS
    PRINT BUDGET
    SAVE BUDGET
1
              HEAD IN LAYER   1 AT END OF TIME STEP  47 IN STRESS PERIOD    3
  ---------------------------------------------------------------------------

            1           2           3           4           5           6           7           8           9          10
 ........................................................................................................................
   1    9.991       8.872       7.755       6.640       5.528       4.420       3.315       2.213       1.112      1.1006E-02
   2    9.991       8.871       7.753       6.636       5.523       4.416       3.313       2.211       1.111      1.1000E-02
   3    9.991       8.870       7.749       6.629       5.514       4.409       3.309       2.209       1.110      1.0991E-02
   4    9.991       8.868       7.743       6.618       5.493       4.398       3.303       2.207       1.109      1.0982E-02
   5    9.991       8.866       7.740       6.605       5.445       4.385       3.299       2.206       1.109      1.0978E-02
   6    9.991       8.868       7.744       6.619       5.494       4.399       3.304       2.207       1.109      1.0985E-02
   7    9.991       8.870       7.750       6.631       5.516       4.411       3.310       2.210       1.111      1.0998E-02
   8    9.991       8.873       7.755       6.639       5.527       4.420       3.316       2.213       1.112      1.1011E-02
   9    9.991       8.874       7.758       6.644       5.533       4.425       3.319       2.216       1.113      1.1021E-02
  10    9.991       8.875       7.760       6.647       5.535       4.427       3.321       2.217       1.114      1.1026E-02

 HEAD WILL BE SAVED ON UNIT   51 AT END OF TIME STEP   47, STRESS PERIOD    3
1
  VOLUMETRIC BUDGET FOR ENTIRE MODEL AT END OF TIME STEP   47, STRESS PERIOD   3
  ------------------------------------------------------------------------------

     CUMULATIVE VOLUMES      L**3       RATES FOR THIS TIME STEP      L**3/T
     ------------------                 ------------------------

           IN:                                      IN:
           ---                                      ---
             STORAGE =       25095.8281               STORAGE =           0.0000
       CONSTANT HEAD =           0.0000         CONSTANT HEAD =           0.0000
               WELLS =           0.0000                 WELLS =           0.0000
     HEAD DEP BOUNDS =      810100.4375       HEAD DEP BOUNDS =        5599.5239

            TOTAL IN =      835196.2500              TOTAL IN =        5599.5239

          OUT:                                     OUT:
          ----                                     ----
             STORAGE =           0.0000               STORAGE =           0.0000
       CONSTANT HEAD =           0.0000         CONSTANT HEAD =           0.0000
               WELLS =        4700.0000                 WELLS =         100.0000
     HEAD DEP BOUNDS =      830532.4375       HEAD DEP BOUNDS =        5499.8154

           TOTAL OUT =      835232.4375             TOTAL OUT =        5599.8154

            IN - OUT =         -36.1875              IN - OUT =          -0.2915

 PERCENT DISCREPANCY =          -0.00     PERCENT DISCREPANCY =          -0.01






         TIME SUMMARY AT END OF TIME STEP   47 IN STRESS PERIOD    3
                    SECONDS     MINUTES      HOURS       DAYS        YEARS
                    -----------------------------------------------------------
   TIME STEP LENGTH  86400.      1440.0      24.000      1.0000     2.73785E-03
 STRESS PERIOD TIME 4.06080E+06  67680.      1128.0      47.000     0.12868    
         TOTAL TIME 1.27872E+07 2.13120E+05  3552.0      148.00     0.40520    
1

 SOLVING FOR HEAD 

 OUTPUT CONTROL FOR STRESS PERIOD    3   TIME STEP   48
    PRINT HEAD FOR ALL LAYERS
    SAVE HEAD FOR ALL LAYERS
    PRINT BUDGET
    SAVE BUDGET
1
              HEAD IN LAYER   1 AT END OF TIME STEP  48 IN STRESS PERIOD    3
  ---------------------------------------------------------------------------

            1           2           3           4           5           6           7           8           9          10
 ........................................................................................................................
   1    9.991       8.872       7.755       6.640       5.528       4.420       3.315       2.213       1.112      1.1006E-02
   2    9.991       8.871       7.753       6.636       5.523       4.416       3.313       2.211       1.111      1.1000E-02
   3    9.991       8.870       7.749       6.629       5.514       4.409       3.309       2.209       1.110      1.0991E-02
   4    9.991       8.868       7.743       6.618       5.493       4.398       3.303       2.207       1.109      1.0982E-02
   5    9.991       8.866       7.740       6.605       5.445       4.385       3.299       2.206       1.109      1.0978E-02
   6    9.991       8.868       7.744       6.619       5.494       4.399       3.304       2.207       1.109      1.0985E-02
   7    9.991       8.870       7.750       6.631       5.516       4.411       3.310       2.210       1.111      1.0998E-02
   8    9.991       8.873       7.755       6.639       5.527       4.420       3.316       2.213       1.112      1.1011E-02
   9    9.991       8.874       7.758       6.644       5.533       4.425       3.319       2.216       1.113      1.1021E-02
  10    9.991       8.875       7.760       6.647       5.535       4.427       3.321       2.217       1.114      1.1026E-02

 HEAD WILL BE SAVED ON UNIT   51 AT END OF TIME STEP   48, STRESS PERIOD    3
1
  VOLUMETRIC BUDGET FOR ENTIRE MODEL AT END OF TIME STEP   48, STRESS PERIOD   3
  ------------------------------------------------------------------------------

     CUMULATIVE VOLUMES      L**3       RATES FOR THIS TIME STEP      L**3/T
     ------------------                 ------------------------

           IN:                                      IN:
           ---                                      ---
             STORAGE =       25095.8281               STORAGE =           0.0000
       CONSTANT HEAD =           0.0000         CONSTANT HEAD =           0.0000
               WELLS =           0.0000                 WELLS =           0.0000
     HEAD DEP BOUNDS =      815699.9375       HEAD DEP BOUNDS =        5599.5239

            TOTAL IN =      840795.7500              TOTAL IN =        5599.5239

          OUT:                                     OUT:
          ----                                     ----
             STORAGE =           0.0000               STORAGE =           0.0000
       CONSTANT HEAD =           0.0000         CONSTANT HEAD =           0.0000
               WELLS =        4800.0000                 WELLS =         100.0000
     HEAD DEP BOUNDS =      836032.2500       HEAD DEP BOUNDS =        5499.8154

           TOTAL OUT =      840832.2500             TOTAL OUT =        5599.8154

            IN - OUT =         -36.5000              IN - OUT =          -0.2915

 PERCENT DISCREPANCY =          -0.00     PERCENT DISCREPANCY =          -0.01






         TIME SUMMARY AT END OF TIME STEP   48 IN STRESS PERIOD    3
                    SECONDS     MINUTES      HOURS       DAYS        YEARS
                    -----------------------------------------------------------
   TIME STEP LENGTH  86400.      1440.0      24.000      1.0000     2.73785E-03
 STRESS PERIOD TIME 4.14720E+06  69120.      1152.0      48.000     0.13142    
         TOTAL TIME 1.28736E+07 2.14560E+05  3576.0      149.00     0.40794    
1

 SOLVING FOR HEAD 

 OUTPUT CONTROL FOR STRESS PERIOD    3   TIME STEP   49
    PRINT HEAD FOR ALL LAYERS
    SAVE HEAD FOR ALL LAYERS
    PRINT BUDGET
    SAVE BUDGET
1
              HEAD IN LAYER   1 AT END OF TIME STEP  49 IN STRESS PERIOD    3
  ---------------------------------------------------------------------------

            1           2           3           4           5           6           7           8           9          10
 ........................................................................................................................
   1    9.991       8.872       7.755       6.640       5.528       4.420       3.315       2.213       1.112      1.1006E-02
   2    9.991       8.871       7.753       6.636       5.523       4.416       3.313       2.211       1.111      1.1000E-02
   3    9.991       8.870       7.749       6.629       5.514       4.409       3.309       2.209       1.110      1.0991E-02
   4    9.991       8.868       7.743       6.618       5.493       4.398       3.303       2.207       1.109      1.0982E-02
   5    9.991       8.866       7.740       6.605       5.445       4.385       3.299       2.206       1.109      1.0978E-02
   6    9.991       8.868       7.744       6.619       5.494       4.399       3.304       2.207       1.109      1.0985E-02
   7    9.991       8.870       7.750       6.631       5.516       4.411       3.310       2.210       1.111      1.0998E-02
   8    9.991       8.873       7.755       6.639       5.527       4.420       3.316       2.213       1.112      1.1011E-02
   9    9.991       8.874       7.758       6.644       5.533       4.425       3.319       2.216       1.113      1.1021E-02
  10    9.991       8.875       7.760       6.647       5.535       4.427       3.321       2.217       1.114      1.1026E-02

 HEAD WILL BE SAVED ON UNIT   51 AT END OF TIME STEP   49, STRESS PERIOD    3
1
  VOLUMETRIC BUDGET FOR ENTIRE MODEL AT END OF TIME STEP   49, STRESS PERIOD   3
  ------------------------------------------------------------------------------

     CUMULATIVE VOLUMES      L**3       RATES FOR THIS TIME STEP      L**3/T
     ------------------                 ------------------------

           IN:                                      IN:
           ---                                      ---
             STORAGE =       25095.8281               STORAGE =           0.0000
       CONSTANT HEAD =           0.0000         CONSTANT HEAD =           0.0000
               WELLS =           0.0000                 WELLS =           0.0000
     HEAD DEP BOUNDS =      821299.4375       HEAD DEP BOUNDS =        5599.5239

            TOTAL IN =      846395.2500              TOTAL IN =        5599.5239

          OUT:                                     OUT:
          ----                                     ----
             STORAGE =           0.0000               STORAGE =           0.0000
       CONSTANT HEAD =           0.0000         CONSTANT HEAD =           0.0000
               WELLS =        4900.0000                 WELLS =         100.0000
     HEAD DEP BOUNDS =      841532.0625       HEAD DEP BOUNDS =        5499.8154

           TOTAL OUT =      846432.0625             TOTAL OUT =        5599.8154

            IN - OUT =         -36.8125              IN - OUT =          -0.2915

 PERCENT DISCREPANCY =          -0.00     PERCENT DISCREPANCY =          -0.01






         TIME SUMMARY AT END OF TIME STEP   49 IN STRESS PERIOD    3
                    SECONDS     MINUTES      HOURS       DAYS        YEARS
                    -----------------------------------------------------------
   TIME STEP LENGTH  86400.      1440.0      24.000      1.0000     2.73785E-03
 STRESS PERIOD TIME 4.23360E+06  70560.      1176.0      49.000     0.13415    
         TOTAL TIME 1.29600E+07 2.16000E+05  3600.0      150.00     0.41068    
1

 SOLVING FOR HEAD 

 OUTPUT CONTROL FOR STRESS PERIOD    3   TIME STEP   50
    PRINT HEAD FOR ALL LAYERS
    SAVE HEAD FOR ALL LAYERS
    PRINT BUDGET
    SAVE BUDGET
1
              HEAD IN LAYER   1 AT END OF TIME STEP  50 IN STRESS PERIOD    3
  ---------------------------------------------------------------------------

            1           2           3           4           5           6           7           8           9          10
 ........................................................................................................................
   1    9.991       8.872       7.755       6.640       5.528       4.420       3.315       2.213       1.112      1.1006E-02
   2    9.991       8.871       7.753       6.636       5.523       4.416       3.313       2.211       1.111      1.1000E-02
   3    9.991       8.870       7.749       6.629       5.514       4.409       3.309       2.209       1.110      1.0991E-02
   4    9.991       8.868       7.743       6.618       5.493       4.398       3.303       2.207       1.109      1.0982E-02
   5    9.991       8.866       7.740       6.605       5.445       4.385       3.299       2.206       1.109      1.0978E-02
   6    9.991       8.868       7.744       6.619       5.494       4.399       3.304       2.207       1.109      1.0985E-02
   7    9.991       8.870       7.750       6.631       5.516       4.411       3.310       2.210       1.111      1.0998E-02
   8    9.991       8.873       7.755       6.639       5.527       4.420       3.316       2.213       1.112      1.1011E-02
   9    9.991       8.874       7.758       6.644       5.533       4.425       3.319       2.216       1.113      1.1021E-02
  10    9.991       8.875       7.760       6.647       5.535       4.427       3.321       2.217       1.114      1.1026E-02

 HEAD WILL BE SAVED ON UNIT   51 AT END OF TIME STEP   50, STRESS PERIOD    3
1
  VOLUMETRIC BUDGET FOR ENTIRE MODEL AT END OF TIME STEP   50, STRESS PERIOD   3
  ------------------------------------------------------------------------------

     CUMULATIVE VOLUMES      L**3       RATES FOR THIS TIME STEP      L**3/T
     ------------------                 ------------------------

           IN:                                      IN:
           ---                                      ---
             STORAGE =       25095.8281               STORAGE =           0.0000
       CONSTANT HEAD =           0.0000         CONSTANT HEAD =           0.0000
               WELLS =           0.0000                 WELLS =           0.0000
     HEAD DEP BOUNDS =      826898.9375       HEAD DEP BOUNDS =        5599.5239

            TOTAL IN =      851994.7500              TOTAL IN =        5599.5239

          OUT:                                     OUT:
          ----                                     ----
             STORAGE =           0.0000               STORAGE =           0.0000
       CONSTANT HEAD =           0.0000         CONSTANT HEAD =           0.0000
               WELLS =        5000.0000                 WELLS =         100.0000
     HEAD DEP BOUNDS =      847031.8750       HEAD DEP BOUNDS =        5499.8154

           TOTAL OUT =      852031.8750             TOTAL OUT =        5599.8154

            IN - OUT =         -37.1250              IN - OUT =          -0.2915

 PERCENT DISCREPANCY =          -0.00     PERCENT DISCREPANCY =          -0.01






         TIME SUMMARY AT END OF TIME STEP   50 IN STRESS PERIOD    3
                    SECONDS     MINUTES      HOURS       DAYS        YEARS
                    -----------------------------------------------------------
   TIME STEP LENGTH  86400.      1440.0      24.000      1.0000     2.73785E-03
 STRESS PERIOD TIME 4.32000E+06  72000.      1200.0      50.000     0.13689    
         TOTAL TIME 1.30464E+07 2.17440E+05  3624.0      151.00     0.41342    
1

 SOLVING FOR HEAD 

 OUTPUT CONTROL FOR STRESS PERIOD    3   TIME STEP   51
    PRINT HEAD FOR ALL LAYERS
    SAVE HEAD FOR ALL LAYERS
    PRINT BUDGET
    SAVE BUDGET
1
              HEAD IN LAYER   1 AT END OF TIME STEP  51 IN STRESS PERIOD    3
  ---------------------------------------------------------------------------

            1           2           3           4           5           6           7           8           9          10
 ........................................................................................................................
   1    9.991       8.872       7.755       6.640       5.528       4.420       3.315       2.213       1.112      1.1006E-02
   2    9.991       8.871       7.753       6.636       5.523       4.416       3.313       2.211       1.111      1.1000E-02
   3    9.991       8.870       7.749       6.629       5.514       4.409       3.309       2.209       1.110      1.0991E-02
   4    9.991       8.868       7.743       6.618       5.493       4.398       3.303       2.207       1.109      1.0982E-02
   5    9.991       8.866       7.740       6.605       5.445       4.385       3.299       2.206       1.109      1.0978E-02
   6    9.991       8.868       7.744       6.619       5.494       4.399       3.304       2.207       1.109      1.0985E-02
   7    9.991       8.870       7.750       6.631       5.516       4.411       3.310       2.210       1.111      1.0998E-02
   8    9.991       8.873       7.755       6.639       5.527       4.420       3.316       2.213       1.112      1.1011E-02
   9    9.991       8.874       7.758       6.644       5.533       4.425       3.319       2.216       1.113      1.1021E-02
  10    9.991       8.875       7.760       6.647       5.535       4.427       3.321       2.217       1.114      1.1026E-02

 HEAD WILL BE SAVED ON UNIT   51 AT END OF TIME STEP   51, STRESS PERIOD    3
1
  VOLUMETRIC BUDGET FOR ENTIRE MODEL AT END OF TIME STEP   51, STRESS PERIOD   3
  ------------------------------------------------------------------------------

     CUMULATIVE VOLUMES      L**3       RATES FOR THIS TIME STEP      L**3/T
     ------------------                 ------------------------

           IN:                                      IN:
           ---                                      ---
             STORAGE =       25095.8281               STORAGE =           0.0000
       CONSTANT HEAD =           0.0000         CONSTANT HEAD =           0.0000
               WELLS =           0.0000                 WELLS =           0.0000
     HEAD DEP BOUNDS =      832498.4375       HEAD DEP BOUNDS =        5599.5239

            TOTAL IN =      857594.2500              TOTAL IN =        5599.5239

          OUT:                                     OUT:
          ----                                     ----
             STORAGE =           0.0000               STORAGE =           0.0000
       CONSTANT HEAD =           0.0000         CONSTANT HEAD =           0.0000
               WELLS =        5100.0000                 WELLS =         100.0000
     HEAD DEP BOUNDS =      852531.6875       HEAD DEP BOUNDS =        5499.8154

           TOTAL OUT =      857631.6875             TOTAL OUT =        5599.8154

            IN - OUT =         -37.4375              IN - OUT =          -0.2915

 PERCENT DISCREPANCY =          -0.00     PERCENT DISCREPANCY =          -0.01






         TIME SUMMARY AT END OF TIME STEP   51 IN STRESS PERIOD    3
                    SECONDS     MINUTES      HOURS       DAYS        YEARS
                    -----------------------------------------------------------
   TIME STEP LENGTH  86400.      1440.0      24.000      1.0000     2.73785E-03
 STRESS PERIOD TIME 4.40640E+06  73440.      1224.0      51.000     0.13963    
         TOTAL TIME 1.31328E+07 2.18880E+05  3648.0      152.00     0.41615    
1

 SOLVING FOR HEAD 

 OUTPUT CONTROL FOR STRESS PERIOD    3   TIME STEP   52
    PRINT HEAD FOR ALL LAYERS
    SAVE HEAD FOR ALL LAYERS
    PRINT BUDGET
    SAVE BUDGET
1
              HEAD IN LAYER   1 AT END OF TIME STEP  52 IN STRESS PERIOD    3
  ---------------------------------------------------------------------------

            1           2           3           4           5           6           7           8           9          10
 ........................................................................................................................
   1    9.991       8.872       7.755       6.640       5.528       4.420       3.315       2.213       1.112      1.1006E-02
   2    9.991       8.871       7.753       6.636       5.523       4.416       3.313       2.211       1.111      1.1000E-02
   3    9.991       8.870       7.749       6.629       5.514       4.409       3.309       2.209       1.110      1.0991E-02
   4    9.991       8.868       7.743       6.618       5.493       4.398       3.303       2.207       1.109      1.0982E-02
   5    9.991       8.866       7.740       6.605       5.445       4.385       3.299       2.206       1.109      1.0978E-02
   6    9.991       8.868       7.744       6.619       5.494       4.399       3.304       2.207       1.109      1.0985E-02
   7    9.991       8.870       7.750       6.631       5.516       4.411       3.310       2.210       1.111      1.0998E-02
   8    9.991       8.873       7.755       6.639       5.527       4.420       3.316       2.213       1.112      1.1011E-02
   9    9.991       8.874       7.758       6.644       5.533       4.425       3.319       2.216       1.113      1.1021E-02
  10    9.991       8.875       7.760       6.647       5.535       4.427       3.321       2.217       1.114      1.1026E-02

 HEAD WILL BE SAVED ON UNIT   51 AT END OF TIME STEP   52, STRESS PERIOD    3
1
  VOLUMETRIC BUDGET FOR ENTIRE MODEL AT END OF TIME STEP   52, STRESS PERIOD   3
  ------------------------------------------------------------------------------

     CUMULATIVE VOLUMES      L**3       RATES FOR THIS TIME STEP      L**3/T
     ------------------                 ------------------------

           IN:                                      IN:
           ---                                      ---
             STORAGE =       25095.8281               STORAGE =           0.0000
       CONSTANT HEAD =           0.0000         CONSTANT HEAD =           0.0000
               WELLS =           0.0000                 WELLS =           0.0000
     HEAD DEP BOUNDS =      838097.9375       HEAD DEP BOUNDS =        5599.5239

            TOTAL IN =      863193.7500              TOTAL IN =        5599.5239

          OUT:                                     OUT:
          ----                                     ----
             STORAGE =           0.0000               STORAGE =           0.0000
       CONSTANT HEAD =           0.0000         CONSTANT HEAD =           0.0000
               WELLS =        5200.0000                 WELLS =         100.0000
     HEAD DEP BOUNDS =      858031.5000       HEAD DEP BOUNDS =        5499.8154

           TOTAL OUT =      863231.5000             TOTAL OUT =        5599.8154

            IN - OUT =         -37.7500              IN - OUT =          -0.2915

 PERCENT DISCREPANCY =          -0.00     PERCENT DISCREPANCY =          -0.01






         TIME SUMMARY AT END OF TIME STEP   52 IN STRESS PERIOD    3
                    SECONDS     MINUTES      HOURS       DAYS        YEARS
                    -----------------------------------------------------------
   TIME STEP LENGTH  86400.      1440.0      24.000      1.0000     2.73785E-03
 STRESS PERIOD TIME 4.49280E+06  74880.      1248.0      52.000     0.14237    
         TOTAL TIME 1.32192E+07 2.20320E+05  3672.0      153.00     0.41889    
1

 SOLVING FOR HEAD 

 OUTPUT CONTROL FOR STRESS PERIOD    3   TIME STEP   53
    PRINT HEAD FOR ALL LAYERS
    SAVE HEAD FOR ALL LAYERS
    PRINT BUDGET
    SAVE BUDGET
1
              HEAD IN LAYER   1 AT END OF TIME STEP  53 IN STRESS PERIOD    3
  ---------------------------------------------------------------------------

            1           2           3           4           5           6           7           8           9          10
 ........................................................................................................................
   1    9.991       8.872       7.755       6.640       5.528       4.420       3.315       2.213       1.112      1.1006E-02
   2    9.991       8.871       7.753       6.636       5.523       4.416       3.313       2.211       1.111      1.1000E-02
   3    9.991       8.870       7.749       6.629       5.514       4.409       3.309       2.209       1.110      1.0991E-02
   4    9.991       8.868       7.743       6.618       5.493       4.398       3.303       2.207       1.109      1.0982E-02
   5    9.991       8.866       7.740       6.605       5.445       4.385       3.299       2.206       1.109      1.0978E-02
   6    9.991       8.868       7.744       6.619       5.494       4.399       3.304       2.207       1.109      1.0985E-02
   7    9.991       8.870       7.750       6.631       5.516       4.411       3.310       2.210       1.111      1.0998E-02
   8    9.991       8.873       7.755       6.639       5.527       4.420       3.316       2.213       1.112      1.1011E-02
   9    9.991       8.874       7.758       6.644       5.533       4.425       3.319       2.216       1.113      1.1021E-02
  10    9.991       8.875       7.760       6.647       5.535       4.427       3.321       2.217       1.114      1.1026E-02

 HEAD WILL BE SAVED ON UNIT   51 AT END OF TIME STEP   53, STRESS PERIOD    3
1
  VOLUMETRIC BUDGET FOR ENTIRE MODEL AT END OF TIME STEP   53, STRESS PERIOD   3
  ------------------------------------------------------------------------------

     CUMULATIVE VOLUMES      L**3       RATES FOR THIS TIME STEP      L**3/T
     ------------------                 ------------------------

           IN:                                      IN:
           ---                                      ---
             STORAGE =       25095.8281               STORAGE =           0.0000
       CONSTANT HEAD =           0.0000         CONSTANT HEAD =           0.0000
               WELLS =           0.0000                 WELLS =           0.0000
     HEAD DEP BOUNDS =      843697.4375       HEAD DEP BOUNDS =        5599.5239

            TOTAL IN =      868793.2500              TOTAL IN =        5599.5239

          OUT:                                     OUT:
          ----                                     ----
             STORAGE =           0.0000               STORAGE =           0.0000
       CONSTANT HEAD =           0.0000         CONSTANT HEAD =           0.0000
               WELLS =        5300.0000                 WELLS =         100.0000
     HEAD DEP BOUNDS =      863531.3125       HEAD DEP BOUNDS =        5499.8154

           TOTAL OUT =      868831.3125             TOTAL OUT =        5599.8154

            IN - OUT =         -38.0625              IN - OUT =          -0.2915

 PERCENT DISCREPANCY =          -0.00     PERCENT DISCREPANCY =          -0.01






         TIME SUMMARY AT END OF TIME STEP   53 IN STRESS PERIOD    3
                    SECONDS     MINUTES      HOURS       DAYS        YEARS
                    -----------------------------------------------------------
   TIME STEP LENGTH  86400.      1440.0      24.000      1.0000     2.73785E-03
 STRESS PERIOD TIME 4.57920E+06  76320.      1272.0      53.000     0.14511    
         TOTAL TIME 1.33056E+07 2.21760E+05  3696.0      154.00     0.42163    
1

 SOLVING FOR HEAD 

 OUTPUT CONTROL FOR STRESS PERIOD    3   TIME STEP   54
    PRINT HEAD FOR ALL LAYERS
    SAVE HEAD FOR ALL LAYERS
    PRINT BUDGET
    SAVE BUDGET
1
              HEAD IN LAYER   1 AT END OF TIME STEP  54 IN STRESS PERIOD    3
  ---------------------------------------------------------------------------

            1           2           3           4           5           6           7           8           9          10
 ........................................................................................................................
   1    9.991       8.872       7.755       6.640       5.528       4.420       3.315       2.213       1.112      1.1006E-02
   2    9.991       8.871       7.753       6.636       5.523       4.416       3.313       2.211       1.111      1.1000E-02
   3    9.991       8.870       7.749       6.629       5.514       4.409       3.309       2.209       1.110      1.0991E-02
   4    9.991       8.868       7.743       6.618       5.493       4.398       3.303       2.207       1.109      1.0982E-02
   5    9.991       8.866       7.740       6.605       5.445       4.385       3.299       2.206       1.109      1.0978E-02
   6    9.991       8.868       7.744       6.619       5.494       4.399       3.304       2.207       1.109      1.0985E-02
   7    9.991       8.870       7.750       6.631       5.516       4.411       3.310       2.210       1.111      1.0998E-02
   8    9.991       8.873       7.755       6.639       5.527       4.420       3.316       2.213       1.112      1.1011E-02
   9    9.991       8.874       7.758       6.644       5.533       4.425       3.319       2.216       1.113      1.1021E-02
  10    9.991       8.875       7.760       6.647       5.535       4.427       3.321       2.217       1.114      1.1026E-02

 HEAD WILL BE SAVED ON UNIT   51 AT END OF TIME STEP   54, STRESS PERIOD    3
1
  VOLUMETRIC BUDGET FOR ENTIRE MODEL AT END OF TIME STEP   54, STRESS PERIOD   3
  ------------------------------------------------------------------------------

     CUMULATIVE VOLUMES      L**3       RATES FOR THIS TIME STEP      L**3/T
     ------------------                 ------------------------

           IN:                                      IN:
           ---                                      ---
             STORAGE =       25095.8281               STORAGE =           0.0000
       CONSTANT HEAD =           0.0000         CONSTANT HEAD =           0.0000
               WELLS =           0.0000                 WELLS =           0.0000
     HEAD DEP BOUNDS =      849296.9375       HEAD DEP BOUNDS =        5599.5239

            TOTAL IN =      874392.7500              TOTAL IN =        5599.5239

          OUT:                                     OUT:
          ----                                     ----
             STORAGE =           0.0000               STORAGE =           0.0000
       CONSTANT HEAD =           0.0000         CONSTANT HEAD =           0.0000
               WELLS =        5400.0000                 WELLS =         100.0000
     HEAD DEP BOUNDS =      869031.1250       HEAD DEP BOUNDS =        5499.8154

           TOTAL OUT =      874431.1250             TOTAL OUT =        5599.8154

            IN - OUT =         -38.3750              IN - OUT =          -0.2915

 PERCENT DISCREPANCY =          -0.00     PERCENT DISCREPANCY =          -0.01






         TIME SUMMARY AT END OF TIME STEP   54 IN STRESS PERIOD    3
                    SECONDS     MINUTES      HOURS       DAYS        YEARS
                    -----------------------------------------------------------
   TIME STEP LENGTH  86400.      1440.0      24.000      1.0000     2.73785E-03
 STRESS PERIOD TIME 4.66560E+06  77760.      1296.0      54.000     0.14784    
         TOTAL TIME 1.33920E+07 2.23200E+05  3720.0      155.00     0.42437    
1

 SOLVING FOR HEAD 

 OUTPUT CONTROL FOR STRESS PERIOD    3   TIME STEP   55
    PRINT HEAD FOR ALL LAYERS
    SAVE HEAD FOR ALL LAYERS
    PRINT BUDGET
    SAVE BUDGET
1
              HEAD IN LAYER   1 AT END OF TIME STEP  55 IN STRESS PERIOD    3
  ---------------------------------------------------------------------------

            1           2           3           4           5           6           7           8           9          10
 ........................................................................................................................
   1    9.991       8.872       7.755       6.640       5.528       4.420       3.315       2.213       1.112      1.1006E-02
   2    9.991       8.871       7.753       6.636       5.523       4.416       3.313       2.211       1.111      1.1000E-02
   3    9.991       8.870       7.749       6.629       5.514       4.409       3.309       2.209       1.110      1.0991E-02
   4    9.991       8.868       7.743       6.618       5.493       4.398       3.303       2.207       1.109      1.0982E-02
   5    9.991       8.866       7.740       6.605       5.445       4.385       3.299       2.206       1.109      1.0978E-02
   6    9.991       8.868       7.744       6.619       5.494       4.399       3.304       2.207       1.109      1.0985E-02
   7    9.991       8.870       7.750       6.631       5.516       4.411       3.310       2.210       1.111      1.0998E-02
   8    9.991       8.873       7.755       6.639       5.527       4.420       3.316       2.213       1.112      1.1011E-02
   9    9.991       8.874       7.758       6.644       5.533       4.425       3.319       2.216       1.113      1.1021E-02
  10    9.991       8.875       7.760       6.647       5.535       4.427       3.321       2.217       1.114      1.1026E-02

 HEAD WILL BE SAVED ON UNIT   51 AT END OF TIME STEP   55, STRESS PERIOD    3
1
  VOLUMETRIC BUDGET FOR ENTIRE MODEL AT END OF TIME STEP   55, STRESS PERIOD   3
  ------------------------------------------------------------------------------

     CUMULATIVE VOLUMES      L**3       RATES FOR THIS TIME STEP      L**3/T
     ------------------                 ------------------------

           IN:                                      IN:
           ---                                      ---
             STORAGE =       25095.8281               STORAGE =           0.0000
       CONSTANT HEAD =           0.0000         CONSTANT HEAD =           0.0000
               WELLS =           0.0000                 WELLS =           0.0000
     HEAD DEP BOUNDS =      854896.4375       HEAD DEP BOUNDS =        5599.5239

            TOTAL IN =      879992.2500              TOTAL IN =        5599.5239

          OUT:                                     OUT:
          ----                                     ----
             STORAGE =           0.0000               STORAGE =           0.0000
       CONSTANT HEAD =           0.0000         CONSTANT HEAD =           0.0000
               WELLS =        5500.0000                 WELLS =         100.0000
     HEAD DEP BOUNDS =      874530.9375       HEAD DEP BOUNDS =        5499.8154

           TOTAL OUT =      880030.9375             TOTAL OUT =        5599.8154

            IN - OUT =         -38.6875              IN - OUT =          -0.2915

 PERCENT DISCREPANCY =          -0.00     PERCENT DISCREPANCY =          -0.01






         TIME SUMMARY AT END OF TIME STEP   55 IN STRESS PERIOD    3
                    SECONDS     MINUTES      HOURS       DAYS        YEARS
                    -----------------------------------------------------------
   TIME STEP LENGTH  86400.      1440.0      24.000      1.0000     2.73785E-03
 STRESS PERIOD TIME 4.75200E+06  79200.      1320.0      55.000     0.15058    
         TOTAL TIME 1.34784E+07 2.24640E+05  3744.0      156.00     0.42710    
1

 SOLVING FOR HEAD 

 OUTPUT CONTROL FOR STRESS PERIOD    3   TIME STEP   56
    PRINT HEAD FOR ALL LAYERS
    SAVE HEAD FOR ALL LAYERS
    PRINT BUDGET
    SAVE BUDGET
1
              HEAD IN LAYER   1 AT END OF TIME STEP  56 IN STRESS PERIOD    3
  ---------------------------------------------------------------------------

            1           2           3           4           5           6           7           8           9          10
 ........................................................................................................................
   1    9.991       8.872       7.755       6.640       5.528       4.420       3.315       2.213       1.112      1.1006E-02
   2    9.991       8.871       7.753       6.636       5.523       4.416       3.313       2.211       1.111      1.1000E-02
   3    9.991       8.870       7.749       6.629       5.514       4.409       3.309       2.209       1.110      1.0991E-02
   4    9.991       8.868       7.743       6.618       5.493       4.398       3.303       2.207       1.109      1.0982E-02
   5    9.991       8.866       7.740       6.605       5.445       4.385       3.299       2.206       1.109      1.0978E-02
   6    9.991       8.868       7.744       6.619       5.494       4.399       3.304       2.207       1.109      1.0985E-02
   7    9.991       8.870       7.750       6.631       5.516       4.411       3.310       2.210       1.111      1.0998E-02
   8    9.991       8.873       7.755       6.639       5.527       4.420       3.316       2.213       1.112      1.1011E-02
   9    9.991       8.874       7.758       6.644       5.533       4.425       3.319       2.216       1.113      1.1021E-02
  10    9.991       8.875       7.760       6.647       5.535       4.427       3.321       2.217       1.114      1.1026E-02

 HEAD WILL BE SAVED ON UNIT   51 AT END OF TIME STEP   56, STRESS PERIOD    3
1
  VOLUMETRIC BUDGET FOR ENTIRE MODEL AT END OF TIME STEP   56, STRESS PERIOD   3
  ------------------------------------------------------------------------------

     CUMULATIVE VOLUMES      L**3       RATES FOR THIS TIME STEP      L**3/T
     ------------------                 ------------------------

           IN:                                      IN:
           ---                                      ---
             STORAGE =       25095.8281               STORAGE =           0.0000
       CONSTANT HEAD =           0.0000         CONSTANT HEAD =           0.0000
               WELLS =           0.0000                 WELLS =           0.0000
     HEAD DEP BOUNDS =      860495.9375       HEAD DEP BOUNDS =        5599.5239

            TOTAL IN =      885591.7500              TOTAL IN =        5599.5239

          OUT:                                     OUT:
          ----                                     ----
             STORAGE =           0.0000               STORAGE =           0.0000
       CONSTANT HEAD =           0.0000         CONSTANT HEAD =           0.0000
               WELLS =        5600.0000                 WELLS =         100.0000
     HEAD DEP BOUNDS =      880030.7500       HEAD DEP BOUNDS =        5499.8154

           TOTAL OUT =      885630.7500             TOTAL OUT =        5599.8154

            IN - OUT =         -39.0000              IN - OUT =          -0.2915

 PERCENT DISCREPANCY =          -0.00     PERCENT DISCREPANCY =          -0.01






         TIME SUMMARY AT END OF TIME STEP   56 IN STRESS PERIOD    3
                    SECONDS     MINUTES      HOURS       DAYS        YEARS
                    -----------------------------------------------------------
   TIME STEP LENGTH  86400.      1440.0      24.000      1.0000     2.73785E-03
 STRESS PERIOD TIME 4.83840E+06  80640.      1344.0      56.000     0.15332    
         TOTAL TIME 1.35648E+07 2.26080E+05  3768.0      157.00     0.42984    
1

 SOLVING FOR HEAD 

 OUTPUT CONTROL FOR STRESS PERIOD    3   TIME STEP   57
    PRINT HEAD FOR ALL LAYERS
    SAVE HEAD FOR ALL LAYERS
    PRINT BUDGET
    SAVE BUDGET
1
              HEAD IN LAYER   1 AT END OF TIME STEP  57 IN STRESS PERIOD    3
  ---------------------------------------------------------------------------

            1           2           3           4           5           6           7           8           9          10
 ........................................................................................................................
   1    9.991       8.872       7.755       6.640       5.528       4.420       3.315       2.213       1.112      1.1006E-02
   2    9.991       8.871       7.753       6.636       5.523       4.416       3.313       2.211       1.111      1.1000E-02
   3    9.991       8.870       7.749       6.629       5.514       4.409       3.309       2.209       1.110      1.0991E-02
   4    9.991       8.868       7.743       6.618       5.493       4.398       3.303       2.207       1.109      1.0982E-02
   5    9.991       8.866       7.740       6.605       5.445       4.385       3.299       2.206       1.109      1.0978E-02
   6    9.991       8.868       7.744       6.619       5.494       4.399       3.304       2.207       1.109      1.0985E-02
   7    9.991       8.870       7.750       6.631       5.516       4.411       3.310       2.210       1.111      1.0998E-02
   8    9.991       8.873       7.755       6.639       5.527       4.420       3.316       2.213       1.112      1.1011E-02
   9    9.991       8.874       7.758       6.644       5.533       4.425       3.319       2.216       1.113      1.1021E-02
  10    9.991       8.875       7.760       6.647       5.535       4.427       3.321       2.217       1.114      1.1026E-02

 HEAD WILL BE SAVED ON UNIT   51 AT END OF TIME STEP   57, STRESS PERIOD    3
1
  VOLUMETRIC BUDGET FOR ENTIRE MODEL AT END OF TIME STEP   57, STRESS PERIOD   3
  ------------------------------------------------------------------------------

     CUMULATIVE VOLUMES      L**3       RATES FOR THIS TIME STEP      L**3/T
     ------------------                 ------------------------

           IN:                                      IN:
           ---                                      ---
             STORAGE =       25095.8281               STORAGE =           0.0000
       CONSTANT HEAD =           0.0000         CONSTANT HEAD =           0.0000
               WELLS =           0.0000                 WELLS =           0.0000
     HEAD DEP BOUNDS =      866095.4375       HEAD DEP BOUNDS =        5599.5239

            TOTAL IN =      891191.2500              TOTAL IN =        5599.5239

          OUT:                                     OUT:
          ----                                     ----
             STORAGE =           0.0000               STORAGE =           0.0000
       CONSTANT HEAD =           0.0000         CONSTANT HEAD =           0.0000
               WELLS =        5700.0000                 WELLS =         100.0000
     HEAD DEP BOUNDS =      885530.5625       HEAD DEP BOUNDS =        5499.8154

           TOTAL OUT =      891230.5625             TOTAL OUT =        5599.8154

            IN - OUT =         -39.3125              IN - OUT =          -0.2915

 PERCENT DISCREPANCY =          -0.00     PERCENT DISCREPANCY =          -0.01






         TIME SUMMARY AT END OF TIME STEP   57 IN STRESS PERIOD    3
                    SECONDS     MINUTES      HOURS       DAYS        YEARS
                    -----------------------------------------------------------
   TIME STEP LENGTH  86400.      1440.0      24.000      1.0000     2.73785E-03
 STRESS PERIOD TIME 4.92480E+06  82080.      1368.0      57.000     0.15606    
         TOTAL TIME 1.36512E+07 2.27520E+05  3792.0      158.00     0.43258    
1

 SOLVING FOR HEAD 

 OUTPUT CONTROL FOR STRESS PERIOD    3   TIME STEP   58
    PRINT HEAD FOR ALL LAYERS
    SAVE HEAD FOR ALL LAYERS
    PRINT BUDGET
    SAVE BUDGET
1
              HEAD IN LAYER   1 AT END OF TIME STEP  58 IN STRESS PERIOD    3
  ---------------------------------------------------------------------------

            1           2           3           4           5           6           7           8           9          10
 ........................................................................................................................
   1    9.991       8.872       7.755       6.640       5.528       4.420       3.315       2.213       1.112      1.1006E-02
   2    9.991       8.871       7.753       6.636       5.523       4.416       3.313       2.211       1.111      1.1000E-02
   3    9.991       8.870       7.749       6.629       5.514       4.409       3.309       2.209       1.110      1.0991E-02
   4    9.991       8.868       7.743       6.618       5.493       4.398       3.303       2.207       1.109      1.0982E-02
   5    9.991       8.866       7.740       6.605       5.445       4.385       3.299       2.206       1.109      1.0978E-02
   6    9.991       8.868       7.744       6.619       5.494       4.399       3.304       2.207       1.109      1.0985E-02
   7    9.991       8.870       7.750       6.631       5.516       4.411       3.310       2.210       1.111      1.0998E-02
   8    9.991       8.873       7.755       6.639       5.527       4.420       3.316       2.213       1.112      1.1011E-02
   9    9.991       8.874       7.758       6.644       5.533       4.425       3.319       2.216       1.113      1.1021E-02
  10    9.991       8.875       7.760       6.647       5.535       4.427       3.321       2.217       1.114      1.1026E-02

 HEAD WILL BE SAVED ON UNIT   51 AT END OF TIME STEP   58, STRESS PERIOD    3
1
  VOLUMETRIC BUDGET FOR ENTIRE MODEL AT END OF TIME STEP   58, STRESS PERIOD   3
  ------------------------------------------------------------------------------

     CUMULATIVE VOLUMES      L**3       RATES FOR THIS TIME STEP      L**3/T
     ------------------                 ------------------------

           IN:                                      IN:
           ---                                      ---
             STORAGE =       25095.8281               STORAGE =           0.0000
       CONSTANT HEAD =           0.0000         CONSTANT HEAD =           0.0000
               WELLS =           0.0000                 WELLS =           0.0000
     HEAD DEP BOUNDS =      871694.9375       HEAD DEP BOUNDS =        5599.5239

            TOTAL IN =      896790.7500              TOTAL IN =        5599.5239

          OUT:                                     OUT:
          ----                                     ----
             STORAGE =           0.0000               STORAGE =           0.0000
       CONSTANT HEAD =           0.0000         CONSTANT HEAD =           0.0000
               WELLS =        5800.0000                 WELLS =         100.0000
     HEAD DEP BOUNDS =      891030.3750       HEAD DEP BOUNDS =        5499.8154

           TOTAL OUT =      896830.3750             TOTAL OUT =        5599.8154

            IN - OUT =         -39.6250              IN - OUT =          -0.2915

 PERCENT DISCREPANCY =          -0.00     PERCENT DISCREPANCY =          -0.01






         TIME SUMMARY AT END OF TIME STEP   58 IN STRESS PERIOD    3
                    SECONDS     MINUTES      HOURS       DAYS        YEARS
                    -----------------------------------------------------------
   TIME STEP LENGTH  86400.      1440.0      24.000      1.0000     2.73785E-03
 STRESS PERIOD TIME 5.01120E+06  83520.      1392.0      58.000     0.15880    
         TOTAL TIME 1.37376E+07 2.28960E+05  3816.0      159.00     0.43532    
1

 SOLVING FOR HEAD 

 OUTPUT CONTROL FOR STRESS PERIOD    3   TIME STEP   59
    PRINT HEAD FOR ALL LAYERS
    SAVE HEAD FOR ALL LAYERS
    PRINT BUDGET
    SAVE BUDGET
1
              HEAD IN LAYER   1 AT END OF TIME STEP  59 IN STRESS PERIOD    3
  ---------------------------------------------------------------------------

            1           2           3           4           5           6           7           8           9          10
 ........................................................................................................................
   1    9.991       8.872       7.755       6.640       5.528       4.420       3.315       2.213       1.112      1.1006E-02
   2    9.991       8.871       7.753       6.636       5.523       4.416       3.313       2.211       1.111      1.1000E-02
   3    9.991       8.870       7.749       6.629       5.514       4.409       3.309       2.209       1.110      1.0991E-02
   4    9.991       8.868       7.743       6.618       5.493       4.398       3.303       2.207       1.109      1.0982E-02
   5    9.991       8.866       7.740       6.605       5.445       4.385       3.299       2.206       1.109      1.0978E-02
   6    9.991       8.868       7.744       6.619       5.494       4.399       3.304       2.207       1.109      1.0985E-02
   7    9.991       8.870       7.750       6.631       5.516       4.411       3.310       2.210       1.111      1.0998E-02
   8    9.991       8.873       7.755       6.639       5.527       4.420       3.316       2.213       1.112      1.1011E-02
   9    9.991       8.874       7.758       6.644       5.533       4.425       3.319       2.216       1.113      1.1021E-02
  10    9.991       8.875       7.760       6.647       5.535       4.427       3.321       2.217       1.114      1.1026E-02

 HEAD WILL BE SAVED ON UNIT   51 AT END OF TIME STEP   59, STRESS PERIOD    3
1
  VOLUMETRIC BUDGET FOR ENTIRE MODEL AT END OF TIME STEP   59, STRESS PERIOD   3
  ------------------------------------------------------------------------------

     CUMULATIVE VOLUMES      L**3       RATES FOR THIS TIME STEP      L**3/T
     ------------------                 ------------------------

           IN:                                      IN:
           ---                                      ---
             STORAGE =       25095.8281               STORAGE =           0.0000
       CONSTANT HEAD =           0.0000         CONSTANT HEAD =           0.0000
               WELLS =           0.0000                 WELLS =           0.0000
     HEAD DEP BOUNDS =      877294.4375       HEAD DEP BOUNDS =        5599.5239

            TOTAL IN =      902390.2500              TOTAL IN =        5599.5239

          OUT:                                     OUT:
          ----                                     ----
             STORAGE =           0.0000               STORAGE =           0.0000
       CONSTANT HEAD =           0.0000         CONSTANT HEAD =           0.0000
               WELLS =        5900.0000                 WELLS =         100.0000
     HEAD DEP BOUNDS =      896530.1875       HEAD DEP BOUNDS =        5499.8154

           TOTAL OUT =      902430.1875             TOTAL OUT =        5599.8154

            IN - OUT =         -39.9375              IN - OUT =          -0.2915

 PERCENT DISCREPANCY =          -0.00     PERCENT DISCREPANCY =          -0.01






         TIME SUMMARY AT END OF TIME STEP   59 IN STRESS PERIOD    3
                    SECONDS     MINUTES      HOURS       DAYS        YEARS
                    -----------------------------------------------------------
   TIME STEP LENGTH  86400.      1440.0      24.000      1.0000     2.73785E-03
 STRESS PERIOD TIME 5.09760E+06  84960.      1416.0      59.000     0.16153    
         TOTAL TIME 1.38240E+07 2.30400E+05  3840.0      160.00     0.43806    
1

 SOLVING FOR HEAD 

 OUTPUT CONTROL FOR STRESS PERIOD    3   TIME STEP   60
    PRINT HEAD FOR ALL LAYERS
    SAVE HEAD FOR ALL LAYERS
    PRINT BUDGET
    SAVE BUDGET
1
              HEAD IN LAYER   1 AT END OF TIME STEP  60 IN STRESS PERIOD    3
  ---------------------------------------------------------------------------

            1           2           3           4           5           6           7           8           9          10
 ........................................................................................................................
   1    9.991       8.872       7.755       6.640       5.528       4.420       3.315       2.213       1.112      1.1006E-02
   2    9.991       8.871       7.753       6.636       5.523       4.416       3.313       2.211       1.111      1.1000E-02
   3    9.991       8.870       7.749       6.629       5.514       4.409       3.309       2.209       1.110      1.0991E-02
   4    9.991       8.868       7.743       6.618       5.493       4.398       3.303       2.207       1.109      1.0982E-02
   5    9.991       8.866       7.740       6.605       5.445       4.385       3.299       2.206       1.109      1.0978E-02
   6    9.991       8.868       7.744       6.619       5.494       4.399       3.304       2.207       1.109      1.0985E-02
   7    9.991       8.870       7.750       6.631       5.516       4.411       3.310       2.210       1.111      1.0998E-02
   8    9.991       8.873       7.755       6.639       5.527       4.420       3.316       2.213       1.112      1.1011E-02
   9    9.991       8.874       7.758       6.644       5.533       4.425       3.319       2.216       1.113      1.1021E-02
  10    9.991       8.875       7.760       6.647       5.535       4.427       3.321       2.217       1.114      1.1026E-02

 HEAD WILL BE SAVED ON UNIT   51 AT END OF TIME STEP   60, STRESS PERIOD    3
1
  VOLUMETRIC BUDGET FOR ENTIRE MODEL AT END OF TIME STEP   60, STRESS PERIOD   3
  ------------------------------------------------------------------------------

     CUMULATIVE VOLUMES      L**3       RATES FOR THIS TIME STEP      L**3/T
     ------------------                 ------------------------

           IN:                                      IN:
           ---                                      ---
             STORAGE =       25095.8281               STORAGE =           0.0000
       CONSTANT HEAD =           0.0000         CONSTANT HEAD =           0.0000
               WELLS =           0.0000                 WELLS =           0.0000
     HEAD DEP BOUNDS =      882893.9375       HEAD DEP BOUNDS =        5599.5239

            TOTAL IN =      907989.7500              TOTAL IN =        5599.5239

          OUT:                                     OUT:
          ----                                     ----
             STORAGE =           0.0000               STORAGE =           0.0000
       CONSTANT HEAD =           0.0000         CONSTANT HEAD =           0.0000
               WELLS =        6000.0000                 WELLS =         100.0000
     HEAD DEP BOUNDS =      902030.0000       HEAD DEP BOUNDS =        5499.8154

           TOTAL OUT =      908030.0000             TOTAL OUT =        5599.8154

            IN - OUT =         -40.2500              IN - OUT =          -0.2915

 PERCENT DISCREPANCY =          -0.00     PERCENT DISCREPANCY =          -0.01






         TIME SUMMARY AT END OF TIME STEP   60 IN STRESS PERIOD    3
                    SECONDS     MINUTES      HOURS       DAYS        YEARS
                    -----------------------------------------------------------
   TIME STEP LENGTH  86400.      1440.0      24.000      1.0000     2.73785E-03
 STRESS PERIOD TIME 5.18400E+06  86400.      1440.0      60.000     0.16427    
         TOTAL TIME 1.39104E+07 2.31840E+05  3864.0      161.00     0.44079    
1

 SOLVING FOR HEAD 

 OUTPUT CONTROL FOR STRESS PERIOD    3   TIME STEP   61
    PRINT HEAD FOR ALL LAYERS
    SAVE HEAD FOR ALL LAYERS
    PRINT BUDGET
    SAVE BUDGET
1
              HEAD IN LAYER   1 AT END OF TIME STEP  61 IN STRESS PERIOD    3
  ---------------------------------------------------------------------------

            1           2           3           4           5           6           7           8           9          10
 ........................................................................................................................
   1    9.991       8.872       7.755       6.640       5.528       4.420       3.315       2.213       1.112      1.1006E-02
   2    9.991       8.871       7.753       6.636       5.523       4.416       3.313       2.211       1.111      1.1000E-02
   3    9.991       8.870       7.749       6.629       5.514       4.409       3.309       2.209       1.110      1.0991E-02
   4    9.991       8.868       7.743       6.618       5.493       4.398       3.303       2.207       1.109      1.0982E-02
   5    9.991       8.866       7.740       6.605       5.445       4.385       3.299       2.206       1.109      1.0978E-02
   6    9.991       8.868       7.744       6.619       5.494       4.399       3.304       2.207       1.109      1.0985E-02
   7    9.991       8.870       7.750       6.631       5.516       4.411       3.310       2.210       1.111      1.0998E-02
   8    9.991       8.873       7.755       6.639       5.527       4.420       3.316       2.213       1.112      1.1011E-02
   9    9.991       8.874       7.758       6.644       5.533       4.425       3.319       2.216       1.113      1.1021E-02
  10    9.991       8.875       7.760       6.647       5.535       4.427       3.321       2.217       1.114      1.1026E-02

 HEAD WILL BE SAVED ON UNIT   51 AT END OF TIME STEP   61, STRESS PERIOD    3
1
  VOLUMETRIC BUDGET FOR ENTIRE MODEL AT END OF TIME STEP   61, STRESS PERIOD   3
  ------------------------------------------------------------------------------

     CUMULATIVE VOLUMES      L**3       RATES FOR THIS TIME STEP      L**3/T
     ------------------                 ------------------------

           IN:                                      IN:
           ---                                      ---
             STORAGE =       25095.8281               STORAGE =           0.0000
       CONSTANT HEAD =           0.0000         CONSTANT HEAD =           0.0000
               WELLS =           0.0000                 WELLS =           0.0000
     HEAD DEP BOUNDS =      888493.4375       HEAD DEP BOUNDS =        5599.5239

            TOTAL IN =      913589.2500              TOTAL IN =        5599.5239

          OUT:                                     OUT:
          ----                                     ----
             STORAGE =           0.0000               STORAGE =           0.0000
       CONSTANT HEAD =           0.0000         CONSTANT HEAD =           0.0000
               WELLS =        6100.0000                 WELLS =         100.0000
     HEAD DEP BOUNDS =      907529.8125       HEAD DEP BOUNDS =        5499.8154

           TOTAL OUT =      913629.8125             TOTAL OUT =        5599.8154

            IN - OUT =         -40.5625              IN - OUT =          -0.2915

 PERCENT DISCREPANCY =          -0.00     PERCENT DISCREPANCY =          -0.01






         TIME SUMMARY AT END OF TIME STEP   61 IN STRESS PERIOD    3
                    SECONDS     MINUTES      HOURS       DAYS        YEARS
                    -----------------------------------------------------------
   TIME STEP LENGTH  86400.      1440.0      24.000      1.0000     2.73785E-03
 STRESS PERIOD TIME 5.27040E+06  87840.      1464.0      61.000     0.16701    
         TOTAL TIME 1.39968E+07 2.33280E+05  3888.0      162.00     0.44353    
1

 SOLVING FOR HEAD 

 OUTPUT CONTROL FOR STRESS PERIOD    3   TIME STEP   62
    PRINT HEAD FOR ALL LAYERS
    SAVE HEAD FOR ALL LAYERS
    PRINT BUDGET
    SAVE BUDGET
1
              HEAD IN LAYER   1 AT END OF TIME STEP  62 IN STRESS PERIOD    3
  ---------------------------------------------------------------------------

            1           2           3           4           5           6           7           8           9          10
 ........................................................................................................................
   1    9.991       8.872       7.755       6.640       5.528       4.420       3.315       2.213       1.112      1.1006E-02
   2    9.991       8.871       7.753       6.636       5.523       4.416       3.313       2.211       1.111      1.1000E-02
   3    9.991       8.870       7.749       6.629       5.514       4.409       3.309       2.209       1.110      1.0991E-02
   4    9.991       8.868       7.743       6.618       5.493       4.398       3.303       2.207       1.109      1.0982E-02
   5    9.991       8.866       7.740       6.605       5.445       4.385       3.299       2.206       1.109      1.0978E-02
   6    9.991       8.868       7.744       6.619       5.494       4.399       3.304       2.207       1.109      1.0985E-02
   7    9.991       8.870       7.750       6.631       5.516       4.411       3.310       2.210       1.111      1.0998E-02
   8    9.991       8.873       7.755       6.639       5.527       4.420       3.316       2.213       1.112      1.1011E-02
   9    9.991       8.874       7.758       6.644       5.533       4.425       3.319       2.216       1.113      1.1021E-02
  10    9.991       8.875       7.760       6.647       5.535       4.427       3.321       2.217       1.114      1.1026E-02

 HEAD WILL BE SAVED ON UNIT   51 AT END OF TIME STEP   62, STRESS PERIOD    3
1
  VOLUMETRIC BUDGET FOR ENTIRE MODEL AT END OF TIME STEP   62, STRESS PERIOD   3
  ------------------------------------------------------------------------------

     CUMULATIVE VOLUMES      L**3       RATES FOR THIS TIME STEP      L**3/T
     ------------------                 ------------------------

           IN:                                      IN:
           ---                                      ---
             STORAGE =       25095.8281               STORAGE =           0.0000
       CONSTANT HEAD =           0.0000         CONSTANT HEAD =           0.0000
               WELLS =           0.0000                 WELLS =           0.0000
     HEAD DEP BOUNDS =      894092.9375       HEAD DEP BOUNDS =        5599.5239

            TOTAL IN =      919188.7500              TOTAL IN =        5599.5239

          OUT:                                     OUT:
          ----                                     ----
             STORAGE =           0.0000               STORAGE =           0.0000
       CONSTANT HEAD =           0.0000         CONSTANT HEAD =           0.0000
               WELLS =        6200.0000                 WELLS =         100.0000
     HEAD DEP BOUNDS =      913029.6250       HEAD DEP BOUNDS =        5499.8154

           TOTAL OUT =      919229.6250             TOTAL OUT =        5599.8154

            IN - OUT =         -40.8750              IN - OUT =          -0.2915

 PERCENT DISCREPANCY =          -0.00     PERCENT DISCREPANCY =          -0.01






         TIME SUMMARY AT END OF TIME STEP   62 IN STRESS PERIOD    3
                    SECONDS     MINUTES      HOURS       DAYS        YEARS
                    -----------------------------------------------------------
   TIME STEP LENGTH  86400.      1440.0      24.000      1.0000     2.73785E-03
 STRESS PERIOD TIME 5.35680E+06  89280.      1488.0      62.000     0.16975    
         TOTAL TIME 1.40832E+07 2.34720E+05  3912.0      163.00     0.44627    
1

 SOLVING FOR HEAD 

 OUTPUT CONTROL FOR STRESS PERIOD    3   TIME STEP   63
    PRINT HEAD FOR ALL LAYERS
    SAVE HEAD FOR ALL LAYERS
    PRINT BUDGET
    SAVE BUDGET
1
              HEAD IN LAYER   1 AT END OF TIME STEP  63 IN STRESS PERIOD    3
  ---------------------------------------------------------------------------

            1           2           3           4           5           6           7           8           9          10
 ........................................................................................................................
   1    9.991       8.872       7.755       6.640       5.528       4.420       3.315       2.213       1.112      1.1006E-02
   2    9.991       8.871       7.753       6.636       5.523       4.416       3.313       2.211       1.111      1.1000E-02
   3    9.991       8.870       7.749       6.629       5.514       4.409       3.309       2.209       1.110      1.0991E-02
   4    9.991       8.868       7.743       6.618       5.493       4.398       3.303       2.207       1.109      1.0982E-02
   5    9.991       8.866       7.740       6.605       5.445       4.385       3.299       2.206       1.109      1.0978E-02
   6    9.991       8.868       7.744       6.619       5.494       4.399       3.304       2.207       1.109      1.0985E-02
   7    9.991       8.870       7.750       6.631       5.516       4.411       3.310       2.210       1.111      1.0998E-02
   8    9.991       8.873       7.755       6.639       5.527       4.420       3.316       2.213       1.112      1.1011E-02
   9    9.991       8.874       7.758       6.644       5.533       4.425       3.319       2.216       1.113      1.1021E-02
  10    9.991       8.875       7.760       6.647       5.535       4.427       3.321       2.217       1.114      1.1026E-02

 HEAD WILL BE SAVED ON UNIT   51 AT END OF TIME STEP   63, STRESS PERIOD    3
1
  VOLUMETRIC BUDGET FOR ENTIRE MODEL AT END OF TIME STEP   63, STRESS PERIOD   3
  ------------------------------------------------------------------------------

     CUMULATIVE VOLUMES      L**3       RATES FOR THIS TIME STEP      L**3/T
     ------------------                 ------------------------

           IN:                                      IN:
           ---                                      ---
             STORAGE =       25095.8281               STORAGE =           0.0000
       CONSTANT HEAD =           0.0000         CONSTANT HEAD =           0.0000
               WELLS =           0.0000                 WELLS =           0.0000
     HEAD DEP BOUNDS =      899692.4375       HEAD DEP BOUNDS =        5599.5239

            TOTAL IN =      924788.2500              TOTAL IN =        5599.5239

          OUT:                                     OUT:
          ----                                     ----
             STORAGE =           0.0000               STORAGE =           0.0000
       CONSTANT HEAD =           0.0000         CONSTANT HEAD =           0.0000
               WELLS =        6300.0000                 WELLS =         100.0000
     HEAD DEP BOUNDS =      918529.4375       HEAD DEP BOUNDS =        5499.8154

           TOTAL OUT =      924829.4375             TOTAL OUT =        5599.8154

            IN - OUT =         -41.1875              IN - OUT =          -0.2915

 PERCENT DISCREPANCY =          -0.00     PERCENT DISCREPANCY =          -0.01






         TIME SUMMARY AT END OF TIME STEP   63 IN STRESS PERIOD    3
                    SECONDS     MINUTES      HOURS       DAYS        YEARS
                    -----------------------------------------------------------
   TIME STEP LENGTH  86400.      1440.0      24.000      1.0000     2.73785E-03
 STRESS PERIOD TIME 5.44320E+06  90720.      1512.0      63.000     0.17248    
         TOTAL TIME 1.41696E+07 2.36160E+05  3936.0      164.00     0.44901    
1

 SOLVING FOR HEAD 

 OUTPUT CONTROL FOR STRESS PERIOD    3   TIME STEP   64
    PRINT HEAD FOR ALL LAYERS
    SAVE HEAD FOR ALL LAYERS
    PRINT BUDGET
    SAVE BUDGET
1
              HEAD IN LAYER   1 AT END OF TIME STEP  64 IN STRESS PERIOD    3
  ---------------------------------------------------------------------------

            1           2           3           4           5           6           7           8           9          10
 ........................................................................................................................
   1    9.991       8.872       7.755       6.640       5.528       4.420       3.315       2.213       1.112      1.1006E-02
   2    9.991       8.871       7.753       6.636       5.523       4.416       3.313       2.211       1.111      1.1000E-02
   3    9.991       8.870       7.749       6.629       5.514       4.409       3.309       2.209       1.110      1.0991E-02
   4    9.991       8.868       7.743       6.618       5.493       4.398       3.303       2.207       1.109      1.0982E-02
   5    9.991       8.866       7.740       6.605       5.445       4.385       3.299       2.206       1.109      1.0978E-02
   6    9.991       8.868       7.744       6.619       5.494       4.399       3.304       2.207       1.109      1.0985E-02
   7    9.991       8.870       7.750       6.631       5.516       4.411       3.310       2.210       1.111      1.0998E-02
   8    9.991       8.873       7.755       6.639       5.527       4.420       3.316       2.213       1.112      1.1011E-02
   9    9.991       8.874       7.758       6.644       5.533       4.425       3.319       2.216       1.113      1.1021E-02
  10    9.991       8.875       7.760       6.647       5.535       4.427       3.321       2.217       1.114      1.1026E-02

 HEAD WILL BE SAVED ON UNIT   51 AT END OF TIME STEP   64, STRESS PERIOD    3
1
  VOLUMETRIC BUDGET FOR ENTIRE MODEL AT END OF TIME STEP   64, STRESS PERIOD   3
  ------------------------------------------------------------------------------

     CUMULATIVE VOLUMES      L**3       RATES FOR THIS TIME STEP      L**3/T
     ------------------                 ------------------------

           IN:                                      IN:
           ---                                      ---
             STORAGE =       25095.8281               STORAGE =           0.0000
       CONSTANT HEAD =           0.0000         CONSTANT HEAD =           0.0000
               WELLS =           0.0000                 WELLS =           0.0000
     HEAD DEP BOUNDS =      905291.9375       HEAD DEP BOUNDS =        5599.5239

            TOTAL IN =      930387.7500              TOTAL IN =        5599.5239

          OUT:                                     OUT:
          ----                                     ----
             STORAGE =           0.0000               STORAGE =           0.0000
       CONSTANT HEAD =           0.0000         CONSTANT HEAD =           0.0000
               WELLS =        6400.0000                 WELLS =         100.0000
     HEAD DEP BOUNDS =      924029.2500       HEAD DEP BOUNDS =        5499.8154

           TOTAL OUT =      930429.2500             TOTAL OUT =        5599.8154

            IN - OUT =         -41.5000              IN - OUT =          -0.2915

 PERCENT DISCREPANCY =          -0.00     PERCENT DISCREPANCY =          -0.01






         TIME SUMMARY AT END OF TIME STEP   64 IN STRESS PERIOD    3
                    SECONDS     MINUTES      HOURS       DAYS        YEARS
                    -----------------------------------------------------------
   TIME STEP LENGTH  86400.      1440.0      24.000      1.0000     2.73785E-03
 STRESS PERIOD TIME 5.52960E+06  92160.      1536.0      64.000     0.17522    
         TOTAL TIME 1.42560E+07 2.37600E+05  3960.0      165.00     0.45175    
1

 SOLVING FOR HEAD 

 OUTPUT CONTROL FOR STRESS PERIOD    3   TIME STEP   65
    PRINT HEAD FOR ALL LAYERS
    SAVE HEAD FOR ALL LAYERS
    PRINT BUDGET
    SAVE BUDGET
1
              HEAD IN LAYER   1 AT END OF TIME STEP  65 IN STRESS PERIOD    3
  ---------------------------------------------------------------------------

            1           2           3           4           5           6           7           8           9          10
 ........................................................................................................................
   1    9.991       8.872       7.755       6.640       5.528       4.420       3.315       2.213       1.112      1.1006E-02
   2    9.991       8.871       7.753       6.636       5.523       4.416       3.313       2.211       1.111      1.1000E-02
   3    9.991       8.870       7.749       6.629       5.514       4.409       3.309       2.209       1.110      1.0991E-02
   4    9.991       8.868       7.743       6.618       5.493       4.398       3.303       2.207       1.109      1.0982E-02
   5    9.991       8.866       7.740       6.605       5.445       4.385       3.299       2.206       1.109      1.0978E-02
   6    9.991       8.868       7.744       6.619       5.494       4.399       3.304       2.207       1.109      1.0985E-02
   7    9.991       8.870       7.750       6.631       5.516       4.411       3.310       2.210       1.111      1.0998E-02
   8    9.991       8.873       7.755       6.639       5.527       4.420       3.316       2.213       1.112      1.1011E-02
   9    9.991       8.874       7.758       6.644       5.533       4.425       3.319       2.216       1.113      1.1021E-02
  10    9.991       8.875       7.760       6.647       5.535       4.427       3.321       2.217       1.114      1.1026E-02

 HEAD WILL BE SAVED ON UNIT   51 AT END OF TIME STEP   65, STRESS PERIOD    3
1
  VOLUMETRIC BUDGET FOR ENTIRE MODEL AT END OF TIME STEP   65, STRESS PERIOD   3
  ------------------------------------------------------------------------------

     CUMULATIVE VOLUMES      L**3       RATES FOR THIS TIME STEP      L**3/T
     ------------------                 ------------------------

           IN:                                      IN:
           ---                                      ---
             STORAGE =       25095.8281               STORAGE =           0.0000
       CONSTANT HEAD =           0.0000         CONSTANT HEAD =           0.0000
               WELLS =           0.0000                 WELLS =           0.0000
     HEAD DEP BOUNDS =      910891.4375       HEAD DEP BOUNDS =        5599.5239

            TOTAL IN =      935987.2500              TOTAL IN =        5599.5239

          OUT:                                     OUT:
          ----                                     ----
             STORAGE =           0.0000               STORAGE =           0.0000
       CONSTANT HEAD =           0.0000         CONSTANT HEAD =           0.0000
               WELLS =        6500.0000                 WELLS =         100.0000
     HEAD DEP BOUNDS =      929529.0625       HEAD DEP BOUNDS =        5499.8154

           TOTAL OUT =      936029.0625             TOTAL OUT =        5599.8154

            IN - OUT =         -41.8125              IN - OUT =          -0.2915

 PERCENT DISCREPANCY =          -0.00     PERCENT DISCREPANCY =          -0.01






         TIME SUMMARY AT END OF TIME STEP   65 IN STRESS PERIOD    3
                    SECONDS     MINUTES      HOURS       DAYS        YEARS
                    -----------------------------------------------------------
   TIME STEP LENGTH  86400.      1440.0      24.000      1.0000     2.73785E-03
 STRESS PERIOD TIME 5.61600E+06  93600.      1560.0      65.000     0.17796    
         TOTAL TIME 1.43424E+07 2.39040E+05  3984.0      166.00     0.45448    
1

 SOLVING FOR HEAD 

 OUTPUT CONTROL FOR STRESS PERIOD    3   TIME STEP   66
    PRINT HEAD FOR ALL LAYERS
    SAVE HEAD FOR ALL LAYERS
    PRINT BUDGET
    SAVE BUDGET
1
              HEAD IN LAYER   1 AT END OF TIME STEP  66 IN STRESS PERIOD    3
  ---------------------------------------------------------------------------

            1           2           3           4           5           6           7           8           9          10
 ........................................................................................................................
   1    9.991       8.872       7.755       6.640       5.528       4.420       3.315       2.213       1.112      1.1006E-02
   2    9.991       8.871       7.753       6.636       5.523       4.416       3.313       2.211       1.111      1.1000E-02
   3    9.991       8.870       7.749       6.629       5.514       4.409       3.309       2.209       1.110      1.0991E-02
   4    9.991       8.868       7.743       6.618       5.493       4.398       3.303       2.207       1.109      1.0982E-02
   5    9.991       8.866       7.740       6.605       5.445       4.385       3.299       2.206       1.109      1.0978E-02
   6    9.991       8.868       7.744       6.619       5.494       4.399       3.304       2.207       1.109      1.0985E-02
   7    9.991       8.870       7.750       6.631       5.516       4.411       3.310       2.210       1.111      1.0998E-02
   8    9.991       8.873       7.755       6.639       5.527       4.420       3.316       2.213       1.112      1.1011E-02
   9    9.991       8.874       7.758       6.644       5.533       4.425       3.319       2.216       1.113      1.1021E-02
  10    9.991       8.875       7.760       6.647       5.535       4.427       3.321       2.217       1.114      1.1026E-02

 HEAD WILL BE SAVED ON UNIT   51 AT END OF TIME STEP   66, STRESS PERIOD    3
1
  VOLUMETRIC BUDGET FOR ENTIRE MODEL AT END OF TIME STEP   66, STRESS PERIOD   3
  ------------------------------------------------------------------------------

     CUMULATIVE VOLUMES      L**3       RATES FOR THIS TIME STEP      L**3/T
     ------------------                 ------------------------

           IN:                                      IN:
           ---                                      ---
             STORAGE =       25095.8281               STORAGE =           0.0000
       CONSTANT HEAD =           0.0000         CONSTANT HEAD =           0.0000
               WELLS =           0.0000                 WELLS =           0.0000
     HEAD DEP BOUNDS =      916490.9375       HEAD DEP BOUNDS =        5599.5239

            TOTAL IN =      941586.7500              TOTAL IN =        5599.5239

          OUT:                                     OUT:
          ----                                     ----
             STORAGE =           0.0000               STORAGE =           0.0000
       CONSTANT HEAD =           0.0000         CONSTANT HEAD =           0.0000
               WELLS =        6600.0000                 WELLS =         100.0000
     HEAD DEP BOUNDS =      935028.8750       HEAD DEP BOUNDS =        5499.8154

           TOTAL OUT =      941628.8750             TOTAL OUT =        5599.8154

            IN - OUT =         -42.1250              IN - OUT =          -0.2915

 PERCENT DISCREPANCY =          -0.00     PERCENT DISCREPANCY =          -0.01






         TIME SUMMARY AT END OF TIME STEP   66 IN STRESS PERIOD    3
                    SECONDS     MINUTES      HOURS       DAYS        YEARS
                    -----------------------------------------------------------
   TIME STEP LENGTH  86400.      1440.0      24.000      1.0000     2.73785E-03
 STRESS PERIOD TIME 5.70240E+06  95040.      1584.0      66.000     0.18070    
         TOTAL TIME 1.44288E+07 2.40480E+05  4008.0      167.00     0.45722    
1

 SOLVING FOR HEAD 

 OUTPUT CONTROL FOR STRESS PERIOD    3   TIME STEP   67
    PRINT HEAD FOR ALL LAYERS
    SAVE HEAD FOR ALL LAYERS
    PRINT BUDGET
    SAVE BUDGET
1
              HEAD IN LAYER   1 AT END OF TIME STEP  67 IN STRESS PERIOD    3
  ---------------------------------------------------------------------------

            1           2           3           4           5           6           7           8           9          10
 ........................................................................................................................
   1    9.991       8.872       7.755       6.640       5.528       4.420       3.315       2.213       1.112      1.1006E-02
   2    9.991       8.871       7.753       6.636       5.523       4.416       3.313       2.211       1.111      1.1000E-02
   3    9.991       8.870       7.749       6.629       5.514       4.409       3.309       2.209       1.110      1.0991E-02
   4    9.991       8.868       7.743       6.618       5.493       4.398       3.303       2.207       1.109      1.0982E-02
   5    9.991       8.866       7.740       6.605       5.445       4.385       3.299       2.206       1.109      1.0978E-02
   6    9.991       8.868       7.744       6.619       5.494       4.399       3.304       2.207       1.109      1.0985E-02
   7    9.991       8.870       7.750       6.631       5.516       4.411       3.310       2.210       1.111      1.0998E-02
   8    9.991       8.873       7.755       6.639       5.527       4.420       3.316       2.213       1.112      1.1011E-02
   9    9.991       8.874       7.758       6.644       5.533       4.425       3.319       2.216       1.113      1.1021E-02
  10    9.991       8.875       7.760       6.647       5.535       4.427       3.321       2.217       1.114      1.1026E-02

 HEAD WILL BE SAVED ON UNIT   51 AT END OF TIME STEP   67, STRESS PERIOD    3
1
  VOLUMETRIC BUDGET FOR ENTIRE MODEL AT END OF TIME STEP   67, STRESS PERIOD   3
  ------------------------------------------------------------------------------

     CUMULATIVE VOLUMES      L**3       RATES FOR THIS TIME STEP      L**3/T
     ------------------                 ------------------------

           IN:                                      IN:
           ---                                      ---
             STORAGE =       25095.8281               STORAGE =           0.0000
       CONSTANT HEAD =           0.0000         CONSTANT HEAD =           0.0000
               WELLS =           0.0000                 WELLS =           0.0000
     HEAD DEP BOUNDS =      922090.4375       HEAD DEP BOUNDS =        5599.5239

            TOTAL IN =      947186.2500              TOTAL IN =        5599.5239

          OUT:                                     OUT:
          ----                                     ----
             STORAGE =           0.0000               STORAGE =           0.0000
       CONSTANT HEAD =           0.0000         CONSTANT HEAD =           0.0000
               WELLS =        6700.0000                 WELLS =         100.0000
     HEAD DEP BOUNDS =      940528.6875       HEAD DEP BOUNDS =        5499.8154

           TOTAL OUT =      947228.6875             TOTAL OUT =        5599.8154

            IN - OUT =         -42.4375              IN - OUT =          -0.2915

 PERCENT DISCREPANCY =          -0.00     PERCENT DISCREPANCY =          -0.01






         TIME SUMMARY AT END OF TIME STEP   67 IN STRESS PERIOD    3
                    SECONDS     MINUTES      HOURS       DAYS        YEARS
                    -----------------------------------------------------------
   TIME STEP LENGTH  86400.      1440.0      24.000      1.0000     2.73785E-03
 STRESS PERIOD TIME 5.78880E+06  96480.      1608.0      67.000     0.18344    
         TOTAL TIME 1.45152E+07 2.41920E+05  4032.0      168.00     0.45996    
1

 SOLVING FOR HEAD 

 OUTPUT CONTROL FOR STRESS PERIOD    3   TIME STEP   68
    PRINT HEAD FOR ALL LAYERS
    SAVE HEAD FOR ALL LAYERS
    PRINT BUDGET
    SAVE BUDGET
1
              HEAD IN LAYER   1 AT END OF TIME STEP  68 IN STRESS PERIOD    3
  ---------------------------------------------------------------------------

            1           2           3           4           5           6           7           8           9          10
 ........................................................................................................................
   1    9.991       8.872       7.755       6.640       5.528       4.420       3.315       2.213       1.112      1.1006E-02
   2    9.991       8.871       7.753       6.636       5.523       4.416       3.313       2.211       1.111      1.1000E-02
   3    9.991       8.870       7.749       6.629       5.514       4.409       3.309       2.209       1.110      1.0991E-02
   4    9.991       8.868       7.743       6.618       5.493       4.398       3.303       2.207       1.109      1.0982E-02
   5    9.991       8.866       7.740       6.605       5.445       4.385       3.299       2.206       1.109      1.0978E-02
   6    9.991       8.868       7.744       6.619       5.494       4.399       3.304       2.207       1.109      1.0985E-02
   7    9.991       8.870       7.750       6.631       5.516       4.411       3.310       2.210       1.111      1.0998E-02
   8    9.991       8.873       7.755       6.639       5.527       4.420       3.316       2.213       1.112      1.1011E-02
   9    9.991       8.874       7.758       6.644       5.533       4.425       3.319       2.216       1.113      1.1021E-02
  10    9.991       8.875       7.760       6.647       5.535       4.427       3.321       2.217       1.114      1.1026E-02

 HEAD WILL BE SAVED ON UNIT   51 AT END OF TIME STEP   68, STRESS PERIOD    3
1
  VOLUMETRIC BUDGET FOR ENTIRE MODEL AT END OF TIME STEP   68, STRESS PERIOD   3
  ------------------------------------------------------------------------------

     CUMULATIVE VOLUMES      L**3       RATES FOR THIS TIME STEP      L**3/T
     ------------------                 ------------------------

           IN:                                      IN:
           ---                                      ---
             STORAGE =       25095.8281               STORAGE =           0.0000
       CONSTANT HEAD =           0.0000         CONSTANT HEAD =           0.0000
               WELLS =           0.0000                 WELLS =           0.0000
     HEAD DEP BOUNDS =      927689.9375       HEAD DEP BOUNDS =        5599.5239

            TOTAL IN =      952785.7500              TOTAL IN =        5599.5239

          OUT:                                     OUT:
          ----                                     ----
             STORAGE =           0.0000               STORAGE =           0.0000
       CONSTANT HEAD =           0.0000         CONSTANT HEAD =           0.0000
               WELLS =        6800.0000                 WELLS =         100.0000
     HEAD DEP BOUNDS =      946028.5000       HEAD DEP BOUNDS =        5499.8154

           TOTAL OUT =      952828.5000             TOTAL OUT =        5599.8154

            IN - OUT =         -42.7500              IN - OUT =          -0.2915

 PERCENT DISCREPANCY =          -0.00     PERCENT DISCREPANCY =          -0.01






         TIME SUMMARY AT END OF TIME STEP   68 IN STRESS PERIOD    3
                    SECONDS     MINUTES      HOURS       DAYS        YEARS
                    -----------------------------------------------------------
   TIME STEP LENGTH  86400.      1440.0      24.000      1.0000     2.73785E-03
 STRESS PERIOD TIME 5.87520E+06  97920.      1632.0      68.000     0.18617    
         TOTAL TIME 1.46016E+07 2.43360E+05  4056.0      169.00     0.46270    
1

 SOLVING FOR HEAD 

 OUTPUT CONTROL FOR STRESS PERIOD    3   TIME STEP   69
    PRINT HEAD FOR ALL LAYERS
    SAVE HEAD FOR ALL LAYERS
    PRINT BUDGET
    SAVE BUDGET
1
              HEAD IN LAYER   1 AT END OF TIME STEP  69 IN STRESS PERIOD    3
  ---------------------------------------------------------------------------

            1           2           3           4           5           6           7           8           9          10
 ........................................................................................................................
   1    9.991       8.872       7.755       6.640       5.528       4.420       3.315       2.213       1.112      1.1006E-02
   2    9.991       8.871       7.753       6.636       5.523       4.416       3.313       2.211       1.111      1.1000E-02
   3    9.991       8.870       7.749       6.629       5.514       4.409       3.309       2.209       1.110      1.0991E-02
   4    9.991       8.868       7.743       6.618       5.493       4.398       3.303       2.207       1.109      1.0982E-02
   5    9.991       8.866       7.740       6.605       5.445       4.385       3.299       2.206       1.109      1.0978E-02
   6    9.991       8.868       7.744       6.619       5.494       4.399       3.304       2.207       1.109      1.0985E-02
   7    9.991       8.870       7.750       6.631       5.516       4.411       3.310       2.210       1.111      1.0998E-02
   8    9.991       8.873       7.755       6.639       5.527       4.420       3.316       2.213       1.112      1.1011E-02
   9    9.991       8.874       7.758       6.644       5.533       4.425       3.319       2.216       1.113      1.1021E-02
  10    9.991       8.875       7.760       6.647       5.535       4.427       3.321       2.217       1.114      1.1026E-02

 HEAD WILL BE SAVED ON UNIT   51 AT END OF TIME STEP   69, STRESS PERIOD    3
1
  VOLUMETRIC BUDGET FOR ENTIRE MODEL AT END OF TIME STEP   69, STRESS PERIOD   3
  ------------------------------------------------------------------------------

     CUMULATIVE VOLUMES      L**3       RATES FOR THIS TIME STEP      L**3/T
     ------------------                 ------------------------

           IN:                                      IN:
           ---                                      ---
             STORAGE =       25095.8281               STORAGE =           0.0000
       CONSTANT HEAD =           0.0000         CONSTANT HEAD =           0.0000
               WELLS =           0.0000                 WELLS =           0.0000
     HEAD DEP BOUNDS =      933289.4375       HEAD DEP BOUNDS =        5599.5239

            TOTAL IN =      958385.2500              TOTAL IN =        5599.5239

          OUT:                                     OUT:
          ----                                     ----
             STORAGE =           0.0000               STORAGE =           0.0000
       CONSTANT HEAD =           0.0000         CONSTANT HEAD =           0.0000
               WELLS =        6900.0000                 WELLS =         100.0000
     HEAD DEP BOUNDS =      951528.3125       HEAD DEP BOUNDS =        5499.8154

           TOTAL OUT =      958428.3125             TOTAL OUT =        5599.8154

            IN - OUT =         -43.0625              IN - OUT =          -0.2915

 PERCENT DISCREPANCY =          -0.00     PERCENT DISCREPANCY =          -0.01






         TIME SUMMARY AT END OF TIME STEP   69 IN STRESS PERIOD    3
                    SECONDS     MINUTES      HOURS       DAYS        YEARS
                    -----------------------------------------------------------
   TIME STEP LENGTH  86400.      1440.0      24.000      1.0000     2.73785E-03
 STRESS PERIOD TIME 5.96160E+06  99360.      1656.0      69.000     0.18891    
         TOTAL TIME 1.46880E+07 2.44800E+05  4080.0      170.00     0.46543    
1

 SOLVING FOR HEAD 

 OUTPUT CONTROL FOR STRESS PERIOD    3   TIME STEP   70
    PRINT HEAD FOR ALL LAYERS
    SAVE HEAD FOR ALL LAYERS
    PRINT BUDGET
    SAVE BUDGET
1
              HEAD IN LAYER   1 AT END OF TIME STEP  70 IN STRESS PERIOD    3
  ---------------------------------------------------------------------------

            1           2           3           4           5           6           7           8           9          10
 ........................................................................................................................
   1    9.991       8.872       7.755       6.640       5.528       4.420       3.315       2.213       1.112      1.1006E-02
   2    9.991       8.871       7.753       6.636       5.523       4.416       3.313       2.211       1.111      1.1000E-02
   3    9.991       8.870       7.749       6.629       5.514       4.409       3.309       2.209       1.110      1.0991E-02
   4    9.991       8.868       7.743       6.618       5.493       4.398       3.303       2.207       1.109      1.0982E-02
   5    9.991       8.866       7.740       6.605       5.445       4.385       3.299       2.206       1.109      1.0978E-02
   6    9.991       8.868       7.744       6.619       5.494       4.399       3.304       2.207       1.109      1.0985E-02
   7    9.991       8.870       7.750       6.631       5.516       4.411       3.310       2.210       1.111      1.0998E-02
   8    9.991       8.873       7.755       6.639       5.527       4.420       3.316       2.213       1.112      1.1011E-02
   9    9.991       8.874       7.758       6.644       5.533       4.425       3.319       2.216       1.113      1.1021E-02
  10    9.991       8.875       7.760       6.647       5.535       4.427       3.321       2.217       1.114      1.1026E-02

 HEAD WILL BE SAVED ON UNIT   51 AT END OF TIME STEP   70, STRESS PERIOD    3
1
  VOLUMETRIC BUDGET FOR ENTIRE MODEL AT END OF TIME STEP   70, STRESS PERIOD   3
  ------------------------------------------------------------------------------

     CUMULATIVE VOLUMES      L**3       RATES FOR THIS TIME STEP      L**3/T
     ------------------                 ------------------------

           IN:                                      IN:
           ---                                      ---
             STORAGE =       25095.8281               STORAGE =           0.0000
       CONSTANT HEAD =           0.0000         CONSTANT HEAD =           0.0000
               WELLS =           0.0000                 WELLS =           0.0000
     HEAD DEP BOUNDS =      938888.9375       HEAD DEP BOUNDS =        5599.5239

            TOTAL IN =      963984.7500              TOTAL IN =        5599.5239

          OUT:                                     OUT:
          ----                                     ----
             STORAGE =           0.0000               STORAGE =           0.0000
       CONSTANT HEAD =           0.0000         CONSTANT HEAD =           0.0000
               WELLS =        7000.0000                 WELLS =         100.0000
     HEAD DEP BOUNDS =      957028.1250       HEAD DEP BOUNDS =        5499.8154

           TOTAL OUT =      964028.1250             TOTAL OUT =        5599.8154

            IN - OUT =         -43.3750              IN - OUT =          -0.2915

 PERCENT DISCREPANCY =          -0.00     PERCENT DISCREPANCY =          -0.01






         TIME SUMMARY AT END OF TIME STEP   70 IN STRESS PERIOD    3
                    SECONDS     MINUTES      HOURS       DAYS        YEARS
                    -----------------------------------------------------------
   TIME STEP LENGTH  86400.      1440.0      24.000      1.0000     2.73785E-03
 STRESS PERIOD TIME 6.04800E+06 1.00800E+05  1680.0      70.000     0.19165    
         TOTAL TIME 1.47744E+07 2.46240E+05  4104.0      171.00     0.46817    
1

 SOLVING FOR HEAD 

 OUTPUT CONTROL FOR STRESS PERIOD    3   TIME STEP   71
    PRINT HEAD FOR ALL LAYERS
    SAVE HEAD FOR ALL LAYERS
    PRINT BUDGET
    SAVE BUDGET
1
              HEAD IN LAYER   1 AT END OF TIME STEP  71 IN STRESS PERIOD    3
  ---------------------------------------------------------------------------

            1           2           3           4           5           6           7           8           9          10
 ........................................................................................................................
   1    9.991       8.872       7.755       6.640       5.528       4.420       3.315       2.213       1.112      1.1006E-02
   2    9.991       8.871       7.753       6.636       5.523       4.416       3.313       2.211       1.111      1.1000E-02
   3    9.991       8.870       7.749       6.629       5.514       4.409       3.309       2.209       1.110      1.0991E-02
   4    9.991       8.868       7.743       6.618       5.493       4.398       3.303       2.207       1.109      1.0982E-02
   5    9.991       8.866       7.740       6.605       5.445       4.385       3.299       2.206       1.109      1.0978E-02
   6    9.991       8.868       7.744       6.619       5.494       4.399       3.304       2.207       1.109      1.0985E-02
   7    9.991       8.870       7.750       6.631       5.516       4.411       3.310       2.210       1.111      1.0998E-02
   8    9.991       8.873       7.755       6.639       5.527       4.420       3.316       2.213       1.112      1.1011E-02
   9    9.991       8.874       7.758       6.644       5.533       4.425       3.319       2.216       1.113      1.1021E-02
  10    9.991       8.875       7.760       6.647       5.535       4.427       3.321       2.217       1.114      1.1026E-02

 HEAD WILL BE SAVED ON UNIT   51 AT END OF TIME STEP   71, STRESS PERIOD    3
1
  VOLUMETRIC BUDGET FOR ENTIRE MODEL AT END OF TIME STEP   71, STRESS PERIOD   3
  ------------------------------------------------------------------------------

     CUMULATIVE VOLUMES      L**3       RATES FOR THIS TIME STEP      L**3/T
     ------------------                 ------------------------

           IN:                                      IN:
           ---                                      ---
             STORAGE =       25095.8281               STORAGE =           0.0000
       CONSTANT HEAD =           0.0000         CONSTANT HEAD =           0.0000
               WELLS =           0.0000                 WELLS =           0.0000
     HEAD DEP BOUNDS =      944488.4375       HEAD DEP BOUNDS =        5599.5239

            TOTAL IN =      969584.2500              TOTAL IN =        5599.5239

          OUT:                                     OUT:
          ----                                     ----
             STORAGE =           0.0000               STORAGE =           0.0000
       CONSTANT HEAD =           0.0000         CONSTANT HEAD =           0.0000
               WELLS =        7100.0000                 WELLS =         100.0000
     HEAD DEP BOUNDS =      962527.9375       HEAD DEP BOUNDS =        5499.8154

           TOTAL OUT =      969627.9375             TOTAL OUT =        5599.8154

            IN - OUT =         -43.6875              IN - OUT =          -0.2915

 PERCENT DISCREPANCY =          -0.00     PERCENT DISCREPANCY =          -0.01






         TIME SUMMARY AT END OF TIME STEP   71 IN STRESS PERIOD    3
                    SECONDS     MINUTES      HOURS       DAYS        YEARS
                    -----------------------------------------------------------
   TIME STEP LENGTH  86400.      1440.0      24.000      1.0000     2.73785E-03
 STRESS PERIOD TIME 6.13440E+06 1.02240E+05  1704.0      71.000     0.19439    
         TOTAL TIME 1.48608E+07 2.47680E+05  4128.0      172.00     0.47091    
1

 SOLVING FOR HEAD 

 OUTPUT CONTROL FOR STRESS PERIOD    3   TIME STEP   72
    PRINT HEAD FOR ALL LAYERS
    SAVE HEAD FOR ALL LAYERS
    PRINT BUDGET
    SAVE BUDGET
1
              HEAD IN LAYER   1 AT END OF TIME STEP  72 IN STRESS PERIOD    3
  ---------------------------------------------------------------------------

            1           2           3           4           5           6           7           8           9          10
 ........................................................................................................................
   1    9.991       8.872       7.755       6.640       5.528       4.420       3.315       2.213       1.112      1.1006E-02
   2    9.991       8.871       7.753       6.636       5.523       4.416       3.313       2.211       1.111      1.1000E-02
   3    9.991       8.870       7.749       6.629       5.514       4.409       3.309       2.209       1.110      1.0991E-02
   4    9.991       8.868       7.743       6.618       5.493       4.398       3.303       2.207       1.109      1.0982E-02
   5    9.991       8.866       7.740       6.605       5.445       4.385       3.299       2.206       1.109      1.0978E-02
   6    9.991       8.868       7.744       6.619       5.494       4.399       3.304       2.207       1.109      1.0985E-02
   7    9.991       8.870       7.750       6.631       5.516       4.411       3.310       2.210       1.111      1.0998E-02
   8    9.991       8.873       7.755       6.639       5.527       4.420       3.316       2.213       1.112      1.1011E-02
   9    9.991       8.874       7.758       6.644       5.533       4.425       3.319       2.216       1.113      1.1021E-02
  10    9.991       8.875       7.760       6.647       5.535       4.427       3.321       2.217       1.114      1.1026E-02

 HEAD WILL BE SAVED ON UNIT   51 AT END OF TIME STEP   72, STRESS PERIOD    3
1
  VOLUMETRIC BUDGET FOR ENTIRE MODEL AT END OF TIME STEP   72, STRESS PERIOD   3
  ------------------------------------------------------------------------------

     CUMULATIVE VOLUMES      L**3       RATES FOR THIS TIME STEP      L**3/T
     ------------------                 ------------------------

           IN:                                      IN:
           ---                                      ---
             STORAGE =       25095.8281               STORAGE =           0.0000
       CONSTANT HEAD =           0.0000         CONSTANT HEAD =           0.0000
               WELLS =           0.0000                 WELLS =           0.0000
     HEAD DEP BOUNDS =      950087.9375       HEAD DEP BOUNDS =        5599.5239

            TOTAL IN =      975183.7500              TOTAL IN =        5599.5239

          OUT:                                     OUT:
          ----                                     ----
             STORAGE =           0.0000               STORAGE =           0.0000
       CONSTANT HEAD =           0.0000         CONSTANT HEAD =           0.0000
               WELLS =        7200.0000                 WELLS =         100.0000
     HEAD DEP BOUNDS =      968027.7500       HEAD DEP BOUNDS =        5499.8154

           TOTAL OUT =      975227.7500             TOTAL OUT =        5599.8154

            IN - OUT =         -44.0000              IN - OUT =          -0.2915

 PERCENT DISCREPANCY =          -0.00     PERCENT DISCREPANCY =          -0.01






         TIME SUMMARY AT END OF TIME STEP   72 IN STRESS PERIOD    3
                    SECONDS     MINUTES      HOURS       DAYS        YEARS
                    -----------------------------------------------------------
   TIME STEP LENGTH  86400.      1440.0      24.000      1.0000     2.73785E-03
 STRESS PERIOD TIME 6.22080E+06 1.03680E+05  1728.0      72.000     0.19713    
         TOTAL TIME 1.49472E+07 2.49120E+05  4152.0      173.00     0.47365    
1

 SOLVING FOR HEAD 

 OUTPUT CONTROL FOR STRESS PERIOD    3   TIME STEP   73
    PRINT HEAD FOR ALL LAYERS
    SAVE HEAD FOR ALL LAYERS
    PRINT BUDGET
    SAVE BUDGET
1
              HEAD IN LAYER   1 AT END OF TIME STEP  73 IN STRESS PERIOD    3
  ---------------------------------------------------------------------------

            1           2           3           4           5           6           7           8           9          10
 ........................................................................................................................
   1    9.991       8.872       7.755       6.640       5.528       4.420       3.315       2.213       1.112      1.1006E-02
   2    9.991       8.871       7.753       6.636       5.523       4.416       3.313       2.211       1.111      1.1000E-02
   3    9.991       8.870       7.749       6.629       5.514       4.409       3.309       2.209       1.110      1.0991E-02
   4    9.991       8.868       7.743       6.618       5.493       4.398       3.303       2.207       1.109      1.0982E-02
   5    9.991       8.866       7.740       6.605       5.445       4.385       3.299       2.206       1.109      1.0978E-02
   6    9.991       8.868       7.744       6.619       5.494       4.399       3.304       2.207       1.109      1.0985E-02
   7    9.991       8.870       7.750       6.631       5.516       4.411       3.310       2.210       1.111      1.0998E-02
   8    9.991       8.873       7.755       6.639       5.527       4.420       3.316       2.213       1.112      1.1011E-02
   9    9.991       8.874       7.758       6.644       5.533       4.425       3.319       2.216       1.113      1.1021E-02
  10    9.991       8.875       7.760       6.647       5.535       4.427       3.321       2.217       1.114      1.1026E-02

 HEAD WILL BE SAVED ON UNIT   51 AT END OF TIME STEP   73, STRESS PERIOD    3
1
  VOLUMETRIC BUDGET FOR ENTIRE MODEL AT END OF TIME STEP   73, STRESS PERIOD   3
  ------------------------------------------------------------------------------

     CUMULATIVE VOLUMES      L**3       RATES FOR THIS TIME STEP      L**3/T
     ------------------                 ------------------------

           IN:                                      IN:
           ---                                      ---
             STORAGE =       25095.8281               STORAGE =           0.0000
       CONSTANT HEAD =           0.0000         CONSTANT HEAD =           0.0000
               WELLS =           0.0000                 WELLS =           0.0000
     HEAD DEP BOUNDS =      955687.4375       HEAD DEP BOUNDS =        5599.5239

            TOTAL IN =      980783.2500              TOTAL IN =        5599.5239

          OUT:                                     OUT:
          ----                                     ----
             STORAGE =           0.0000               STORAGE =           0.0000
       CONSTANT HEAD =           0.0000         CONSTANT HEAD =           0.0000
               WELLS =        7300.0000                 WELLS =         100.0000
     HEAD DEP BOUNDS =      973527.5625       HEAD DEP BOUNDS =        5499.8154

           TOTAL OUT =      980827.5625             TOTAL OUT =        5599.8154

            IN - OUT =         -44.3125              IN - OUT =          -0.2915

 PERCENT DISCREPANCY =          -0.00     PERCENT DISCREPANCY =          -0.01






         TIME SUMMARY AT END OF TIME STEP   73 IN STRESS PERIOD    3
                    SECONDS     MINUTES      HOURS       DAYS        YEARS
                    -----------------------------------------------------------
   TIME STEP LENGTH  86400.      1440.0      24.000      1.0000     2.73785E-03
 STRESS PERIOD TIME 6.30720E+06 1.05120E+05  1752.0      73.000     0.19986    
         TOTAL TIME 1.50336E+07 2.50560E+05  4176.0      174.00     0.47639    
1

 SOLVING FOR HEAD 

 OUTPUT CONTROL FOR STRESS PERIOD    3   TIME STEP   74
    PRINT HEAD FOR ALL LAYERS
    SAVE HEAD FOR ALL LAYERS
    PRINT BUDGET
    SAVE BUDGET
1
              HEAD IN LAYER   1 AT END OF TIME STEP  74 IN STRESS PERIOD    3
  ---------------------------------------------------------------------------

            1           2           3           4           5           6           7           8           9          10
 ........................................................................................................................
   1    9.991       8.872       7.755       6.640       5.528       4.420       3.315       2.213       1.112      1.1006E-02
   2    9.991       8.871       7.753       6.636       5.523       4.416       3.313       2.211       1.111      1.1000E-02
   3    9.991       8.870       7.749       6.629       5.514       4.409       3.309       2.209       1.110      1.0991E-02
   4    9.991       8.868       7.743       6.618       5.493       4.398       3.303       2.207       1.109      1.0982E-02
   5    9.991       8.866       7.740       6.605       5.445       4.385       3.299       2.206       1.109      1.0978E-02
   6    9.991       8.868       7.744       6.619       5.494       4.399       3.304       2.207       1.109      1.0985E-02
   7    9.991       8.870       7.750       6.631       5.516       4.411       3.310       2.210       1.111      1.0998E-02
   8    9.991       8.873       7.755       6.639       5.527       4.420       3.316       2.213       1.112      1.1011E-02
   9    9.991       8.874       7.758       6.644       5.533       4.425       3.319       2.216       1.113      1.1021E-02
  10    9.991       8.875       7.760       6.647       5.535       4.427       3.321       2.217       1.114      1.1026E-02

 HEAD WILL BE SAVED ON UNIT   51 AT END OF TIME STEP   74, STRESS PERIOD    3
1
  VOLUMETRIC BUDGET FOR ENTIRE MODEL AT END OF TIME STEP   74, STRESS PERIOD   3
  ------------------------------------------------------------------------------

     CUMULATIVE VOLUMES      L**3       RATES FOR THIS TIME STEP      L**3/T
     ------------------                 ------------------------

           IN:                                      IN:
           ---                                      ---
             STORAGE =       25095.8281               STORAGE =           0.0000
       CONSTANT HEAD =           0.0000         CONSTANT HEAD =           0.0000
               WELLS =           0.0000                 WELLS =           0.0000
     HEAD DEP BOUNDS =      961286.9375       HEAD DEP BOUNDS =        5599.5239

            TOTAL IN =      986382.7500              TOTAL IN =        5599.5239

          OUT:                                     OUT:
          ----                                     ----
             STORAGE =           0.0000               STORAGE =           0.0000
       CONSTANT HEAD =           0.0000         CONSTANT HEAD =           0.0000
               WELLS =        7400.0000                 WELLS =         100.0000
     HEAD DEP BOUNDS =      979027.3750       HEAD DEP BOUNDS =        5499.8154

           TOTAL OUT =      986427.3750             TOTAL OUT =        5599.8154

            IN - OUT =         -44.6250              IN - OUT =          -0.2915

 PERCENT DISCREPANCY =          -0.00     PERCENT DISCREPANCY =          -0.01






         TIME SUMMARY AT END OF TIME STEP   74 IN STRESS PERIOD    3
                    SECONDS     MINUTES      HOURS       DAYS        YEARS
                    -----------------------------------------------------------
   TIME STEP LENGTH  86400.      1440.0      24.000      1.0000     2.73785E-03
 STRESS PERIOD TIME 6.39360E+06 1.06560E+05  1776.0      74.000     0.20260    
         TOTAL TIME 1.51200E+07 2.52000E+05  4200.0      175.00     0.47912    
1

 SOLVING FOR HEAD 

 OUTPUT CONTROL FOR STRESS PERIOD    3   TIME STEP   75
    PRINT HEAD FOR ALL LAYERS
    SAVE HEAD FOR ALL LAYERS
    PRINT BUDGET
    SAVE BUDGET
1
              HEAD IN LAYER   1 AT END OF TIME STEP  75 IN STRESS PERIOD    3
  ---------------------------------------------------------------------------

            1           2           3           4           5           6           7           8           9          10
 ........................................................................................................................
   1    9.991       8.872       7.755       6.640       5.528       4.420       3.315       2.213       1.112      1.1006E-02
   2    9.991       8.871       7.753       6.636       5.523       4.416       3.313       2.211       1.111      1.1000E-02
   3    9.991       8.870       7.749       6.629       5.514       4.409       3.309       2.209       1.110      1.0991E-02
   4    9.991       8.868       7.743       6.618       5.493       4.398       3.303       2.207       1.109      1.0982E-02
   5    9.991       8.866       7.740       6.605       5.445       4.385       3.299       2.206       1.109      1.0978E-02
   6    9.991       8.868       7.744       6.619       5.494       4.399       3.304       2.207       1.109      1.0985E-02
   7    9.991       8.870       7.750       6.631       5.516       4.411       3.310       2.210       1.111      1.0998E-02
   8    9.991       8.873       7.755       6.639       5.527       4.420       3.316       2.213       1.112      1.1011E-02
   9    9.991       8.874       7.758       6.644       5.533       4.425       3.319       2.216       1.113      1.1021E-02
  10    9.991       8.875       7.760       6.647       5.535       4.427       3.321       2.217       1.114      1.1026E-02

 HEAD WILL BE SAVED ON UNIT   51 AT END OF TIME STEP   75, STRESS PERIOD    3
1
  VOLUMETRIC BUDGET FOR ENTIRE MODEL AT END OF TIME STEP   75, STRESS PERIOD   3
  ------------------------------------------------------------------------------

     CUMULATIVE VOLUMES      L**3       RATES FOR THIS TIME STEP      L**3/T
     ------------------                 ------------------------

           IN:                                      IN:
           ---                                      ---
             STORAGE =       25095.8281               STORAGE =           0.0000
       CONSTANT HEAD =           0.0000         CONSTANT HEAD =           0.0000
               WELLS =           0.0000                 WELLS =           0.0000
     HEAD DEP BOUNDS =      966886.4375       HEAD DEP BOUNDS =        5599.5239

            TOTAL IN =      991982.2500              TOTAL IN =        5599.5239

          OUT:                                     OUT:
          ----                                     ----
             STORAGE =           0.0000               STORAGE =           0.0000
       CONSTANT HEAD =           0.0000         CONSTANT HEAD =           0.0000
               WELLS =        7500.0000                 WELLS =         100.0000
     HEAD DEP BOUNDS =      984527.1875       HEAD DEP BOUNDS =        5499.8154

           TOTAL OUT =      992027.1875             TOTAL OUT =        5599.8154

            IN - OUT =         -44.9375              IN - OUT =          -0.2915

 PERCENT DISCREPANCY =          -0.00     PERCENT DISCREPANCY =          -0.01






         TIME SUMMARY AT END OF TIME STEP   75 IN STRESS PERIOD    3
                    SECONDS     MINUTES      HOURS       DAYS        YEARS
                    -----------------------------------------------------------
   TIME STEP LENGTH  86400.      1440.0      24.000      1.0000     2.73785E-03
 STRESS PERIOD TIME 6.48000E+06 1.08000E+05  1800.0      75.000     0.20534    
         TOTAL TIME 1.52064E+07 2.53440E+05  4224.0      176.00     0.48186    
1

 SOLVING FOR HEAD 

 OUTPUT CONTROL FOR STRESS PERIOD    3   TIME STEP   76
    PRINT HEAD FOR ALL LAYERS
    SAVE HEAD FOR ALL LAYERS
    PRINT BUDGET
    SAVE BUDGET
1
              HEAD IN LAYER   1 AT END OF TIME STEP  76 IN STRESS PERIOD    3
  ---------------------------------------------------------------------------

            1           2           3           4           5           6           7           8           9          10
 ........................................................................................................................
   1    9.991       8.872       7.755       6.640       5.528       4.420       3.315       2.213       1.112      1.1006E-02
   2    9.991       8.871       7.753       6.636       5.523       4.416       3.313       2.211       1.111      1.1000E-02
   3    9.991       8.870       7.749       6.629       5.514       4.409       3.309       2.209       1.110      1.0991E-02
   4    9.991       8.868       7.743       6.618       5.493       4.398       3.303       2.207       1.109      1.0982E-02
   5    9.991       8.866       7.740       6.605       5.445       4.385       3.299       2.206       1.109      1.0978E-02
   6    9.991       8.868       7.744       6.619       5.494       4.399       3.304       2.207       1.109      1.0985E-02
   7    9.991       8.870       7.750       6.631       5.516       4.411       3.310       2.210       1.111      1.0998E-02
   8    9.991       8.873       7.755       6.639       5.527       4.420       3.316       2.213       1.112      1.1011E-02
   9    9.991       8.874       7.758       6.644       5.533       4.425       3.319       2.216       1.113      1.1021E-02
  10    9.991       8.875       7.760       6.647       5.535       4.427       3.321       2.217       1.114      1.1026E-02

 HEAD WILL BE SAVED ON UNIT   51 AT END OF TIME STEP   76, STRESS PERIOD    3
1
  VOLUMETRIC BUDGET FOR ENTIRE MODEL AT END OF TIME STEP   76, STRESS PERIOD   3
  ------------------------------------------------------------------------------

     CUMULATIVE VOLUMES      L**3       RATES FOR THIS TIME STEP      L**3/T
     ------------------                 ------------------------

           IN:                                      IN:
           ---                                      ---
             STORAGE =       25095.8281               STORAGE =           0.0000
       CONSTANT HEAD =           0.0000         CONSTANT HEAD =           0.0000
               WELLS =           0.0000                 WELLS =           0.0000
     HEAD DEP BOUNDS =      972485.9375       HEAD DEP BOUNDS =        5599.5239

            TOTAL IN =      997581.7500              TOTAL IN =        5599.5239

          OUT:                                     OUT:
          ----                                     ----
             STORAGE =           0.0000               STORAGE =           0.0000
       CONSTANT HEAD =           0.0000         CONSTANT HEAD =           0.0000
               WELLS =        7600.0000                 WELLS =         100.0000
     HEAD DEP BOUNDS =      990027.0000       HEAD DEP BOUNDS =        5499.8154

           TOTAL OUT =      997627.0000             TOTAL OUT =        5599.8154

            IN - OUT =         -45.2500              IN - OUT =          -0.2915

 PERCENT DISCREPANCY =          -0.00     PERCENT DISCREPANCY =          -0.01






         TIME SUMMARY AT END OF TIME STEP   76 IN STRESS PERIOD    3
                    SECONDS     MINUTES      HOURS       DAYS        YEARS
                    -----------------------------------------------------------
   TIME STEP LENGTH  86400.      1440.0      24.000      1.0000     2.73785E-03
 STRESS PERIOD TIME 6.56640E+06 1.09440E+05  1824.0      76.000     0.20808    
         TOTAL TIME 1.52928E+07 2.54880E+05  4248.0      177.00     0.48460    
1

 SOLVING FOR HEAD 

 OUTPUT CONTROL FOR STRESS PERIOD    3   TIME STEP   77
    PRINT HEAD FOR ALL LAYERS
    SAVE HEAD FOR ALL LAYERS
    PRINT BUDGET
    SAVE BUDGET
1
              HEAD IN LAYER   1 AT END OF TIME STEP  77 IN STRESS PERIOD    3
  ---------------------------------------------------------------------------

            1           2           3           4           5           6           7           8           9          10
 ........................................................................................................................
   1    9.991       8.872       7.755       6.640       5.528       4.420       3.315       2.213       1.112      1.1006E-02
   2    9.991       8.871       7.753       6.636       5.523       4.416       3.313       2.211       1.111      1.1000E-02
   3    9.991       8.870       7.749       6.629       5.514       4.409       3.309       2.209       1.110      1.0991E-02
   4    9.991       8.868       7.743       6.618       5.493       4.398       3.303       2.207       1.109      1.0982E-02
   5    9.991       8.866       7.740       6.605       5.445       4.385       3.299       2.206       1.109      1.0978E-02
   6    9.991       8.868       7.744       6.619       5.494       4.399       3.304       2.207       1.109      1.0985E-02
   7    9.991       8.870       7.750       6.631       5.516       4.411       3.310       2.210       1.111      1.0998E-02
   8    9.991       8.873       7.755       6.639       5.527       4.420       3.316       2.213       1.112      1.1011E-02
   9    9.991       8.874       7.758       6.644       5.533       4.425       3.319       2.216       1.113      1.1021E-02
  10    9.991       8.875       7.760       6.647       5.535       4.427       3.321       2.217       1.114      1.1026E-02

 HEAD WILL BE SAVED ON UNIT   51 AT END OF TIME STEP   77, STRESS PERIOD    3
1
  VOLUMETRIC BUDGET FOR ENTIRE MODEL AT END OF TIME STEP   77, STRESS PERIOD   3
  ------------------------------------------------------------------------------

     CUMULATIVE VOLUMES      L**3       RATES FOR THIS TIME STEP      L**3/T
     ------------------                 ------------------------

           IN:                                      IN:
           ---                                      ---
             STORAGE =       25095.8281               STORAGE =           0.0000
       CONSTANT HEAD =           0.0000         CONSTANT HEAD =           0.0000
               WELLS =           0.0000                 WELLS =           0.0000
     HEAD DEP BOUNDS =      978085.4375       HEAD DEP BOUNDS =        5599.5239

            TOTAL IN =     1003181.2500              TOTAL IN =        5599.5239

          OUT:                                     OUT:
          ----                                     ----
             STORAGE =           0.0000               STORAGE =           0.0000
       CONSTANT HEAD =           0.0000         CONSTANT HEAD =           0.0000
               WELLS =        7700.0000                 WELLS =         100.0000
     HEAD DEP BOUNDS =      995526.8125       HEAD DEP BOUNDS =        5499.8154

           TOTAL OUT =     1003226.8125             TOTAL OUT =        5599.8154

            IN - OUT =         -45.5625              IN - OUT =          -0.2915

 PERCENT DISCREPANCY =          -0.00     PERCENT DISCREPANCY =          -0.01






         TIME SUMMARY AT END OF TIME STEP   77 IN STRESS PERIOD    3
                    SECONDS     MINUTES      HOURS       DAYS        YEARS
                    -----------------------------------------------------------
   TIME STEP LENGTH  86400.      1440.0      24.000      1.0000     2.73785E-03
 STRESS PERIOD TIME 6.65280E+06 1.10880E+05  1848.0      77.000     0.21081    
         TOTAL TIME 1.53792E+07 2.56320E+05  4272.0      178.00     0.48734    
1

 SOLVING FOR HEAD 

 OUTPUT CONTROL FOR STRESS PERIOD    3   TIME STEP   78
    PRINT HEAD FOR ALL LAYERS
    SAVE HEAD FOR ALL LAYERS
    PRINT BUDGET
    SAVE BUDGET
1
              HEAD IN LAYER   1 AT END OF TIME STEP  78 IN STRESS PERIOD    3
  ---------------------------------------------------------------------------

            1           2           3           4           5           6           7           8           9          10
 ........................................................................................................................
   1    9.991       8.872       7.755       6.640       5.528       4.420       3.315       2.213       1.112      1.1006E-02
   2    9.991       8.871       7.753       6.636       5.523       4.416       3.313       2.211       1.111      1.1000E-02
   3    9.991       8.870       7.749       6.629       5.514       4.409       3.309       2.209       1.110      1.0991E-02
   4    9.991       8.868       7.743       6.618       5.493       4.398       3.303       2.207       1.109      1.0982E-02
   5    9.991       8.866       7.740       6.605       5.445       4.385       3.299       2.206       1.109      1.0978E-02
   6    9.991       8.868       7.744       6.619       5.494       4.399       3.304       2.207       1.109      1.0985E-02
   7    9.991       8.870       7.750       6.631       5.516       4.411       3.310       2.210       1.111      1.0998E-02
   8    9.991       8.873       7.755       6.639       5.527       4.420       3.316       2.213       1.112      1.1011E-02
   9    9.991       8.874       7.758       6.644       5.533       4.425       3.319       2.216       1.113      1.1021E-02
  10    9.991       8.875       7.760       6.647       5.535       4.427       3.321       2.217       1.114      1.1026E-02

 HEAD WILL BE SAVED ON UNIT   51 AT END OF TIME STEP   78, STRESS PERIOD    3
1
  VOLUMETRIC BUDGET FOR ENTIRE MODEL AT END OF TIME STEP   78, STRESS PERIOD   3
  ------------------------------------------------------------------------------

     CUMULATIVE VOLUMES      L**3       RATES FOR THIS TIME STEP      L**3/T
     ------------------                 ------------------------

           IN:                                      IN:
           ---                                      ---
             STORAGE =       25095.8281               STORAGE =           0.0000
       CONSTANT HEAD =           0.0000         CONSTANT HEAD =           0.0000
               WELLS =           0.0000                 WELLS =           0.0000
     HEAD DEP BOUNDS =      983684.9375       HEAD DEP BOUNDS =        5599.5239

            TOTAL IN =     1008780.7500              TOTAL IN =        5599.5239

          OUT:                                     OUT:
          ----                                     ----
             STORAGE =           0.0000               STORAGE =           0.0000
       CONSTANT HEAD =           0.0000         CONSTANT HEAD =           0.0000
               WELLS =        7800.0000                 WELLS =         100.0000
     HEAD DEP BOUNDS =     1001026.6250       HEAD DEP BOUNDS =        5499.8154

           TOTAL OUT =     1008826.6250             TOTAL OUT =        5599.8154

            IN - OUT =         -45.8750              IN - OUT =          -0.2915

 PERCENT DISCREPANCY =          -0.00     PERCENT DISCREPANCY =          -0.01






         TIME SUMMARY AT END OF TIME STEP   78 IN STRESS PERIOD    3
                    SECONDS     MINUTES      HOURS       DAYS        YEARS
                    -----------------------------------------------------------
   TIME STEP LENGTH  86400.      1440.0      24.000      1.0000     2.73785E-03
 STRESS PERIOD TIME 6.73920E+06 1.12320E+05  1872.0      78.000     0.21355    
         TOTAL TIME 1.54656E+07 2.57760E+05  4296.0      179.00     0.49008    
1

 SOLVING FOR HEAD 

 OUTPUT CONTROL FOR STRESS PERIOD    3   TIME STEP   79
    PRINT HEAD FOR ALL LAYERS
    SAVE HEAD FOR ALL LAYERS
    PRINT BUDGET
    SAVE BUDGET
1
              HEAD IN LAYER   1 AT END OF TIME STEP  79 IN STRESS PERIOD    3
  ---------------------------------------------------------------------------

            1           2           3           4           5           6           7           8           9          10
 ........................................................................................................................
   1    9.991       8.872       7.755       6.640       5.528       4.420       3.315       2.213       1.112      1.1006E-02
   2    9.991       8.871       7.753       6.636       5.523       4.416       3.313       2.211       1.111      1.1000E-02
   3    9.991       8.870       7.749       6.629       5.514       4.409       3.309       2.209       1.110      1.0991E-02
   4    9.991       8.868       7.743       6.618       5.493       4.398       3.303       2.207       1.109      1.0982E-02
   5    9.991       8.866       7.740       6.605       5.445       4.385       3.299       2.206       1.109      1.0978E-02
   6    9.991       8.868       7.744       6.619       5.494       4.399       3.304       2.207       1.109      1.0985E-02
   7    9.991       8.870       7.750       6.631       5.516       4.411       3.310       2.210       1.111      1.0998E-02
   8    9.991       8.873       7.755       6.639       5.527       4.420       3.316       2.213       1.112      1.1011E-02
   9    9.991       8.874       7.758       6.644       5.533       4.425       3.319       2.216       1.113      1.1021E-02
  10    9.991       8.875       7.760       6.647       5.535       4.427       3.321       2.217       1.114      1.1026E-02

 HEAD WILL BE SAVED ON UNIT   51 AT END OF TIME STEP   79, STRESS PERIOD    3
1
  VOLUMETRIC BUDGET FOR ENTIRE MODEL AT END OF TIME STEP   79, STRESS PERIOD   3
  ------------------------------------------------------------------------------

     CUMULATIVE VOLUMES      L**3       RATES FOR THIS TIME STEP      L**3/T
     ------------------                 ------------------------

           IN:                                      IN:
           ---                                      ---
             STORAGE =       25095.8281               STORAGE =           0.0000
       CONSTANT HEAD =           0.0000         CONSTANT HEAD =           0.0000
               WELLS =           0.0000                 WELLS =           0.0000
     HEAD DEP BOUNDS =      989284.4375       HEAD DEP BOUNDS =        5599.5239

            TOTAL IN =     1014380.2500              TOTAL IN =        5599.5239

          OUT:                                     OUT:
          ----                                     ----
             STORAGE =           0.0000               STORAGE =           0.0000
       CONSTANT HEAD =           0.0000         CONSTANT HEAD =           0.0000
               WELLS =        7900.0000                 WELLS =         100.0000
     HEAD DEP BOUNDS =     1006526.4375       HEAD DEP BOUNDS =        5499.8154

           TOTAL OUT =     1014426.4375             TOTAL OUT =        5599.8154

            IN - OUT =         -46.1875              IN - OUT =          -0.2915

 PERCENT DISCREPANCY =          -0.00     PERCENT DISCREPANCY =          -0.01






         TIME SUMMARY AT END OF TIME STEP   79 IN STRESS PERIOD    3
                    SECONDS     MINUTES      HOURS       DAYS        YEARS
                    -----------------------------------------------------------
   TIME STEP LENGTH  86400.      1440.0      24.000      1.0000     2.73785E-03
 STRESS PERIOD TIME 6.82560E+06 1.13760E+05  1896.0      79.000     0.21629    
         TOTAL TIME 1.55520E+07 2.59200E+05  4320.0      180.00     0.49281    
1

 SOLVING FOR HEAD 

 OUTPUT CONTROL FOR STRESS PERIOD    3   TIME STEP   80
    PRINT HEAD FOR ALL LAYERS
    SAVE HEAD FOR ALL LAYERS
    PRINT BUDGET
    SAVE BUDGET
1
              HEAD IN LAYER   1 AT END OF TIME STEP  80 IN STRESS PERIOD    3
  ---------------------------------------------------------------------------

            1           2           3           4           5           6           7           8           9          10
 ........................................................................................................................
   1    9.991       8.872       7.755       6.640       5.528       4.420       3.315       2.213       1.112      1.1006E-02
   2    9.991       8.871       7.753       6.636       5.523       4.416       3.313       2.211       1.111      1.1000E-02
   3    9.991       8.870       7.749       6.629       5.514       4.409       3.309       2.209       1.110      1.0991E-02
   4    9.991       8.868       7.743       6.618       5.493       4.398       3.303       2.207       1.109      1.0982E-02
   5    9.991       8.866       7.740       6.605       5.445       4.385       3.299       2.206       1.109      1.0978E-02
   6    9.991       8.868       7.744       6.619       5.494       4.399       3.304       2.207       1.109      1.0985E-02
   7    9.991       8.870       7.750       6.631       5.516       4.411       3.310       2.210       1.111      1.0998E-02
   8    9.991       8.873       7.755       6.639       5.527       4.420       3.316       2.213       1.112      1.1011E-02
   9    9.991       8.874       7.758       6.644       5.533       4.425       3.319       2.216       1.113      1.1021E-02
  10    9.991       8.875       7.760       6.647       5.535       4.427       3.321       2.217       1.114      1.1026E-02

 HEAD WILL BE SAVED ON UNIT   51 AT END OF TIME STEP   80, STRESS PERIOD    3
1
  VOLUMETRIC BUDGET FOR ENTIRE MODEL AT END OF TIME STEP   80, STRESS PERIOD   3
  ------------------------------------------------------------------------------

     CUMULATIVE VOLUMES      L**3       RATES FOR THIS TIME STEP      L**3/T
     ------------------                 ------------------------

           IN:                                      IN:
           ---                                      ---
             STORAGE =       25095.8281               STORAGE =           0.0000
       CONSTANT HEAD =           0.0000         CONSTANT HEAD =           0.0000
               WELLS =           0.0000                 WELLS =           0.0000
     HEAD DEP BOUNDS =      994883.9375       HEAD DEP BOUNDS =        5599.5239

            TOTAL IN =     1019979.7500              TOTAL IN =        5599.5239

          OUT:                                     OUT:
          ----                                     ----
             STORAGE =           0.0000               STORAGE =           0.0000
       CONSTANT HEAD =           0.0000         CONSTANT HEAD =           0.0000
               WELLS =        8000.0000                 WELLS =         100.0000
     HEAD DEP BOUNDS =     1012026.2500       HEAD DEP BOUNDS =        5499.8154

           TOTAL OUT =     1020026.2500             TOTAL OUT =        5599.8154

            IN - OUT =         -46.5000              IN - OUT =          -0.2915

 PERCENT DISCREPANCY =          -0.00     PERCENT DISCREPANCY =          -0.01






         TIME SUMMARY AT END OF TIME STEP   80 IN STRESS PERIOD    3
                    SECONDS     MINUTES      HOURS       DAYS        YEARS
                    -----------------------------------------------------------
   TIME STEP LENGTH  86400.      1440.0      24.000      1.0000     2.73785E-03
 STRESS PERIOD TIME 6.91200E+06 1.15200E+05  1920.0      80.000     0.21903    
         TOTAL TIME 1.56384E+07 2.60640E+05  4344.0      181.00     0.49555    
1

 SOLVING FOR HEAD 

 OUTPUT CONTROL FOR STRESS PERIOD    3   TIME STEP   81
    PRINT HEAD FOR ALL LAYERS
    SAVE HEAD FOR ALL LAYERS
    PRINT BUDGET
    SAVE BUDGET
1
              HEAD IN LAYER   1 AT END OF TIME STEP  81 IN STRESS PERIOD    3
  ---------------------------------------------------------------------------

            1           2           3           4           5           6           7           8           9          10
 ........................................................................................................................
   1    9.991       8.872       7.755       6.640       5.528       4.420       3.315       2.213       1.112      1.1006E-02
   2    9.991       8.871       7.753       6.636       5.523       4.416       3.313       2.211       1.111      1.1000E-02
   3    9.991       8.870       7.749       6.629       5.514       4.409       3.309       2.209       1.110      1.0991E-02
   4    9.991       8.868       7.743       6.618       5.493       4.398       3.303       2.207       1.109      1.0982E-02
   5    9.991       8.866       7.740       6.605       5.445       4.385       3.299       2.206       1.109      1.0978E-02
   6    9.991       8.868       7.744       6.619       5.494       4.399       3.304       2.207       1.109      1.0985E-02
   7    9.991       8.870       7.750       6.631       5.516       4.411       3.310       2.210       1.111      1.0998E-02
   8    9.991       8.873       7.755       6.639       5.527       4.420       3.316       2.213       1.112      1.1011E-02
   9    9.991       8.874       7.758       6.644       5.533       4.425       3.319       2.216       1.113      1.1021E-02
  10    9.991       8.875       7.760       6.647       5.535       4.427       3.321       2.217       1.114      1.1026E-02

 HEAD WILL BE SAVED ON UNIT   51 AT END OF TIME STEP   81, STRESS PERIOD    3
1
  VOLUMETRIC BUDGET FOR ENTIRE MODEL AT END OF TIME STEP   81, STRESS PERIOD   3
  ------------------------------------------------------------------------------

     CUMULATIVE VOLUMES      L**3       RATES FOR THIS TIME STEP      L**3/T
     ------------------                 ------------------------

           IN:                                      IN:
           ---                                      ---
             STORAGE =       25095.8281               STORAGE =           0.0000
       CONSTANT HEAD =           0.0000         CONSTANT HEAD =           0.0000
               WELLS =           0.0000                 WELLS =           0.0000
     HEAD DEP BOUNDS =     1000483.4375       HEAD DEP BOUNDS =        5599.5239

            TOTAL IN =     1025579.2500              TOTAL IN =        5599.5239

          OUT:                                     OUT:
          ----                                     ----
             STORAGE =           0.0000               STORAGE =           0.0000
       CONSTANT HEAD =           0.0000         CONSTANT HEAD =           0.0000
               WELLS =        8100.0000                 WELLS =         100.0000
     HEAD DEP BOUNDS =     1017526.0625       HEAD DEP BOUNDS =        5499.8154

           TOTAL OUT =     1025626.0625             TOTAL OUT =        5599.8154

            IN - OUT =         -46.8125              IN - OUT =          -0.2915

 PERCENT DISCREPANCY =          -0.00     PERCENT DISCREPANCY =          -0.01






         TIME SUMMARY AT END OF TIME STEP   81 IN STRESS PERIOD    3
                    SECONDS     MINUTES      HOURS       DAYS        YEARS
                    -----------------------------------------------------------
   TIME STEP LENGTH  86400.      1440.0      24.000      1.0000     2.73785E-03
 STRESS PERIOD TIME 6.99840E+06 1.16640E+05  1944.0      81.000     0.22177    
         TOTAL TIME 1.57248E+07 2.62080E+05  4368.0      182.00     0.49829    
1

 SOLVING FOR HEAD 

 OUTPUT CONTROL FOR STRESS PERIOD    3   TIME STEP   82
    PRINT HEAD FOR ALL LAYERS
    SAVE HEAD FOR ALL LAYERS
    PRINT BUDGET
    SAVE BUDGET
1
              HEAD IN LAYER   1 AT END OF TIME STEP  82 IN STRESS PERIOD    3
  ---------------------------------------------------------------------------

            1           2           3           4           5           6           7           8           9          10
 ........................................................................................................................
   1    9.991       8.872       7.755       6.640       5.528       4.420       3.315       2.213       1.112      1.1006E-02
   2    9.991       8.871       7.753       6.636       5.523       4.416       3.313       2.211       1.111      1.1000E-02
   3    9.991       8.870       7.749       6.629       5.514       4.409       3.309       2.209       1.110      1.0991E-02
   4    9.991       8.868       7.743       6.618       5.493       4.398       3.303       2.207       1.109      1.0982E-02
   5    9.991       8.866       7.740       6.605       5.445       4.385       3.299       2.206       1.109      1.0978E-02
   6    9.991       8.868       7.744       6.619       5.494       4.399       3.304       2.207       1.109      1.0985E-02
   7    9.991       8.870       7.750       6.631       5.516       4.411       3.310       2.210       1.111      1.0998E-02
   8    9.991       8.873       7.755       6.639       5.527       4.420       3.316       2.213       1.112      1.1011E-02
   9    9.991       8.874       7.758       6.644       5.533       4.425       3.319       2.216       1.113      1.1021E-02
  10    9.991       8.875       7.760       6.647       5.535       4.427       3.321       2.217       1.114      1.1026E-02

 HEAD WILL BE SAVED ON UNIT   51 AT END OF TIME STEP   82, STRESS PERIOD    3
1
  VOLUMETRIC BUDGET FOR ENTIRE MODEL AT END OF TIME STEP   82, STRESS PERIOD   3
  ------------------------------------------------------------------------------

     CUMULATIVE VOLUMES      L**3       RATES FOR THIS TIME STEP      L**3/T
     ------------------                 ------------------------

           IN:                                      IN:
           ---                                      ---
             STORAGE =       25095.8281               STORAGE =           0.0000
       CONSTANT HEAD =           0.0000         CONSTANT HEAD =           0.0000
               WELLS =           0.0000                 WELLS =           0.0000
     HEAD DEP BOUNDS =     1006082.9375       HEAD DEP BOUNDS =        5599.5239

            TOTAL IN =     1031178.7500              TOTAL IN =        5599.5239

          OUT:                                     OUT:
          ----                                     ----
             STORAGE =           0.0000               STORAGE =           0.0000
       CONSTANT HEAD =           0.0000         CONSTANT HEAD =           0.0000
               WELLS =        8200.0000                 WELLS =         100.0000
     HEAD DEP BOUNDS =     1023025.8750       HEAD DEP BOUNDS =        5499.8154

           TOTAL OUT =     1031225.8750             TOTAL OUT =        5599.8154

            IN - OUT =         -47.1250              IN - OUT =          -0.2915

 PERCENT DISCREPANCY =          -0.00     PERCENT DISCREPANCY =          -0.01






         TIME SUMMARY AT END OF TIME STEP   82 IN STRESS PERIOD    3
                    SECONDS     MINUTES      HOURS       DAYS        YEARS
                    -----------------------------------------------------------
   TIME STEP LENGTH  86400.      1440.0      24.000      1.0000     2.73785E-03
 STRESS PERIOD TIME 7.08480E+06 1.18080E+05  1968.0      82.000     0.22450    
         TOTAL TIME 1.58112E+07 2.63520E+05  4392.0      183.00     0.50103    
1

 SOLVING FOR HEAD 

 OUTPUT CONTROL FOR STRESS PERIOD    3   TIME STEP   83
    PRINT HEAD FOR ALL LAYERS
    SAVE HEAD FOR ALL LAYERS
    PRINT BUDGET
    SAVE BUDGET
1
              HEAD IN LAYER   1 AT END OF TIME STEP  83 IN STRESS PERIOD    3
  ---------------------------------------------------------------------------

            1           2           3           4           5           6           7           8           9          10
 ........................................................................................................................
   1    9.991       8.872       7.755       6.640       5.528       4.420       3.315       2.213       1.112      1.1006E-02
   2    9.991       8.871       7.753       6.636       5.523       4.416       3.313       2.211       1.111      1.1000E-02
   3    9.991       8.870       7.749       6.629       5.514       4.409       3.309       2.209       1.110      1.0991E-02
   4    9.991       8.868       7.743       6.618       5.493       4.398       3.303       2.207       1.109      1.0982E-02
   5    9.991       8.866       7.740       6.605       5.445       4.385       3.299       2.206       1.109      1.0978E-02
   6    9.991       8.868       7.744       6.619       5.494       4.399       3.304       2.207       1.109      1.0985E-02
   7    9.991       8.870       7.750       6.631       5.516       4.411       3.310       2.210       1.111      1.0998E-02
   8    9.991       8.873       7.755       6.639       5.527       4.420       3.316       2.213       1.112      1.1011E-02
   9    9.991       8.874       7.758       6.644       5.533       4.425       3.319       2.216       1.113      1.1021E-02
  10    9.991       8.875       7.760       6.647       5.535       4.427       3.321       2.217       1.114      1.1026E-02

 HEAD WILL BE SAVED ON UNIT   51 AT END OF TIME STEP   83, STRESS PERIOD    3
1
  VOLUMETRIC BUDGET FOR ENTIRE MODEL AT END OF TIME STEP   83, STRESS PERIOD   3
  ------------------------------------------------------------------------------

     CUMULATIVE VOLUMES      L**3       RATES FOR THIS TIME STEP      L**3/T
     ------------------                 ------------------------

           IN:                                      IN:
           ---                                      ---
             STORAGE =       25095.8281               STORAGE =           0.0000
       CONSTANT HEAD =           0.0000         CONSTANT HEAD =           0.0000
               WELLS =           0.0000                 WELLS =           0.0000
     HEAD DEP BOUNDS =     1011682.4375       HEAD DEP BOUNDS =        5599.5239

            TOTAL IN =     1036778.2500              TOTAL IN =        5599.5239

          OUT:                                     OUT:
          ----                                     ----
             STORAGE =           0.0000               STORAGE =           0.0000
       CONSTANT HEAD =           0.0000         CONSTANT HEAD =           0.0000
               WELLS =        8300.0000                 WELLS =         100.0000
     HEAD DEP BOUNDS =     1028525.6875       HEAD DEP BOUNDS =        5499.8154

           TOTAL OUT =     1036825.6875             TOTAL OUT =        5599.8154

            IN - OUT =         -47.4375              IN - OUT =          -0.2915

 PERCENT DISCREPANCY =          -0.00     PERCENT DISCREPANCY =          -0.01






         TIME SUMMARY AT END OF TIME STEP   83 IN STRESS PERIOD    3
                    SECONDS     MINUTES      HOURS       DAYS        YEARS
                    -----------------------------------------------------------
   TIME STEP LENGTH  86400.      1440.0      24.000      1.0000     2.73785E-03
 STRESS PERIOD TIME 7.17120E+06 1.19520E+05  1992.0      83.000     0.22724    
         TOTAL TIME 1.58976E+07 2.64960E+05  4416.0      184.00     0.50376    
1

 SOLVING FOR HEAD 

 OUTPUT CONTROL FOR STRESS PERIOD    3   TIME STEP   84
    PRINT HEAD FOR ALL LAYERS
    SAVE HEAD FOR ALL LAYERS
    PRINT BUDGET
    SAVE BUDGET
1
              HEAD IN LAYER   1 AT END OF TIME STEP  84 IN STRESS PERIOD    3
  ---------------------------------------------------------------------------

            1           2           3           4           5           6           7           8           9          10
 ........................................................................................................................
   1    9.991       8.872       7.755       6.640       5.528       4.420       3.315       2.213       1.112      1.1006E-02
   2    9.991       8.871       7.753       6.636       5.523       4.416       3.313       2.211       1.111      1.1000E-02
   3    9.991       8.870       7.749       6.629       5.514       4.409       3.309       2.209       1.110      1.0991E-02
   4    9.991       8.868       7.743       6.618       5.493       4.398       3.303       2.207       1.109      1.0982E-02
   5    9.991       8.866       7.740       6.605       5.445       4.385       3.299       2.206       1.109      1.0978E-02
   6    9.991       8.868       7.744       6.619       5.494       4.399       3.304       2.207       1.109      1.0985E-02
   7    9.991       8.870       7.750       6.631       5.516       4.411       3.310       2.210       1.111      1.0998E-02
   8    9.991       8.873       7.755       6.639       5.527       4.420       3.316       2.213       1.112      1.1011E-02
   9    9.991       8.874       7.758       6.644       5.533       4.425       3.319       2.216       1.113      1.1021E-02
  10    9.991       8.875       7.760       6.647       5.535       4.427       3.321       2.217       1.114      1.1026E-02

 HEAD WILL BE SAVED ON UNIT   51 AT END OF TIME STEP   84, STRESS PERIOD    3
1
  VOLUMETRIC BUDGET FOR ENTIRE MODEL AT END OF TIME STEP   84, STRESS PERIOD   3
  ------------------------------------------------------------------------------

     CUMULATIVE VOLUMES      L**3       RATES FOR THIS TIME STEP      L**3/T
     ------------------                 ------------------------

           IN:                                      IN:
           ---                                      ---
             STORAGE =       25095.8281               STORAGE =           0.0000
       CONSTANT HEAD =           0.0000         CONSTANT HEAD =           0.0000
               WELLS =           0.0000                 WELLS =           0.0000
     HEAD DEP BOUNDS =     1017281.9375       HEAD DEP BOUNDS =        5599.5239

            TOTAL IN =     1042377.7500              TOTAL IN =        5599.5239

          OUT:                                     OUT:
          ----                                     ----
             STORAGE =           0.0000               STORAGE =           0.0000
       CONSTANT HEAD =           0.0000         CONSTANT HEAD =           0.0000
               WELLS =        8400.0000                 WELLS =         100.0000
     HEAD DEP BOUNDS =     1034025.5000       HEAD DEP BOUNDS =        5499.8154

           TOTAL OUT =     1042425.5000             TOTAL OUT =        5599.8154

            IN - OUT =         -47.7500              IN - OUT =          -0.2915

 PERCENT DISCREPANCY =          -0.00     PERCENT DISCREPANCY =          -0.01






         TIME SUMMARY AT END OF TIME STEP   84 IN STRESS PERIOD    3
                    SECONDS     MINUTES      HOURS       DAYS        YEARS
                    -----------------------------------------------------------
   TIME STEP LENGTH  86400.      1440.0      24.000      1.0000     2.73785E-03
 STRESS PERIOD TIME 7.25760E+06 1.20960E+05  2016.0      84.000     0.22998    
         TOTAL TIME 1.59840E+07 2.66400E+05  4440.0      185.00     0.50650    
1

 SOLVING FOR HEAD 

 OUTPUT CONTROL FOR STRESS PERIOD    3   TIME STEP   85
    PRINT HEAD FOR ALL LAYERS
    SAVE HEAD FOR ALL LAYERS
    PRINT BUDGET
    SAVE BUDGET
1
              HEAD IN LAYER   1 AT END OF TIME STEP  85 IN STRESS PERIOD    3
  ---------------------------------------------------------------------------

            1           2           3           4           5           6           7           8           9          10
 ........................................................................................................................
   1    9.991       8.872       7.755       6.640       5.528       4.420       3.315       2.213       1.112      1.1006E-02
   2    9.991       8.871       7.753       6.636       5.523       4.416       3.313       2.211       1.111      1.1000E-02
   3    9.991       8.870       7.749       6.629       5.514       4.409       3.309       2.209       1.110      1.0991E-02
   4    9.991       8.868       7.743       6.618       5.493       4.398       3.303       2.207       1.109      1.0982E-02
   5    9.991       8.866       7.740       6.605       5.445       4.385       3.299       2.206       1.109      1.0978E-02
   6    9.991       8.868       7.744       6.619       5.494       4.399       3.304       2.207       1.109      1.0985E-02
   7    9.991       8.870       7.750       6.631       5.516       4.411       3.310       2.210       1.111      1.0998E-02
   8    9.991       8.873       7.755       6.639       5.527       4.420       3.316       2.213       1.112      1.1011E-02
   9    9.991       8.874       7.758       6.644       5.533       4.425       3.319       2.216       1.113      1.1021E-02
  10    9.991       8.875       7.760       6.647       5.535       4.427       3.321       2.217       1.114      1.1026E-02

 HEAD WILL BE SAVED ON UNIT   51 AT END OF TIME STEP   85, STRESS PERIOD    3
1
  VOLUMETRIC BUDGET FOR ENTIRE MODEL AT END OF TIME STEP   85, STRESS PERIOD   3
  ------------------------------------------------------------------------------

     CUMULATIVE VOLUMES      L**3       RATES FOR THIS TIME STEP      L**3/T
     ------------------                 ------------------------

           IN:                                      IN:
           ---                                      ---
             STORAGE =       25095.8281               STORAGE =           0.0000
       CONSTANT HEAD =           0.0000         CONSTANT HEAD =           0.0000
               WELLS =           0.0000                 WELLS =           0.0000
     HEAD DEP BOUNDS =     1022881.4375       HEAD DEP BOUNDS =        5599.5239

            TOTAL IN =     1047977.2500              TOTAL IN =        5599.5239

          OUT:                                     OUT:
          ----                                     ----
             STORAGE =           0.0000               STORAGE =           0.0000
       CONSTANT HEAD =           0.0000         CONSTANT HEAD =           0.0000
               WELLS =        8500.0000                 WELLS =         100.0000
     HEAD DEP BOUNDS =     1039525.3125       HEAD DEP BOUNDS =        5499.8154

           TOTAL OUT =     1048025.3125             TOTAL OUT =        5599.8154

            IN - OUT =         -48.0625              IN - OUT =          -0.2915

 PERCENT DISCREPANCY =          -0.00     PERCENT DISCREPANCY =          -0.01






         TIME SUMMARY AT END OF TIME STEP   85 IN STRESS PERIOD    3
                    SECONDS     MINUTES      HOURS       DAYS        YEARS
                    -----------------------------------------------------------
   TIME STEP LENGTH  86400.      1440.0      24.000      1.0000     2.73785E-03
 STRESS PERIOD TIME 7.34400E+06 1.22400E+05  2040.0      85.000     0.23272    
         TOTAL TIME 1.60704E+07 2.67840E+05  4464.0      186.00     0.50924    
1

 SOLVING FOR HEAD 

 OUTPUT CONTROL FOR STRESS PERIOD    3   TIME STEP   86
    PRINT HEAD FOR ALL LAYERS
    SAVE HEAD FOR ALL LAYERS
    PRINT BUDGET
    SAVE BUDGET
1
              HEAD IN LAYER   1 AT END OF TIME STEP  86 IN STRESS PERIOD    3
  ---------------------------------------------------------------------------

            1           2           3           4           5           6           7           8           9          10
 ........................................................................................................................
   1    9.991       8.872       7.755       6.640       5.528       4.420       3.315       2.213       1.112      1.1006E-02
   2    9.991       8.871       7.753       6.636       5.523       4.416       3.313       2.211       1.111      1.1000E-02
   3    9.991       8.870       7.749       6.629       5.514       4.409       3.309       2.209       1.110      1.0991E-02
   4    9.991       8.868       7.743       6.618       5.493       4.398       3.303       2.207       1.109      1.0982E-02
   5    9.991       8.866       7.740       6.605       5.445       4.385       3.299       2.206       1.109      1.0978E-02
   6    9.991       8.868       7.744       6.619       5.494       4.399       3.304       2.207       1.109      1.0985E-02
   7    9.991       8.870       7.750       6.631       5.516       4.411       3.310       2.210       1.111      1.0998E-02
   8    9.991       8.873       7.755       6.639       5.527       4.420       3.316       2.213       1.112      1.1011E-02
   9    9.991       8.874       7.758       6.644       5.533       4.425       3.319       2.216       1.113      1.1021E-02
  10    9.991       8.875       7.760       6.647       5.535       4.427       3.321       2.217       1.114      1.1026E-02

 HEAD WILL BE SAVED ON UNIT   51 AT END OF TIME STEP   86, STRESS PERIOD    3
1
  VOLUMETRIC BUDGET FOR ENTIRE MODEL AT END OF TIME STEP   86, STRESS PERIOD   3
  ------------------------------------------------------------------------------

     CUMULATIVE VOLUMES      L**3       RATES FOR THIS TIME STEP      L**3/T
     ------------------                 ------------------------

           IN:                                      IN:
           ---                                      ---
             STORAGE =       25095.8281               STORAGE =           0.0000
       CONSTANT HEAD =           0.0000         CONSTANT HEAD =           0.0000
               WELLS =           0.0000                 WELLS =           0.0000
     HEAD DEP BOUNDS =     1028480.9375       HEAD DEP BOUNDS =        5599.5239

            TOTAL IN =     1053576.7500              TOTAL IN =        5599.5239

          OUT:                                     OUT:
          ----                                     ----
             STORAGE =           0.0000               STORAGE =           0.0000
       CONSTANT HEAD =           0.0000         CONSTANT HEAD =           0.0000
               WELLS =        8600.0000                 WELLS =         100.0000
     HEAD DEP BOUNDS =     1045025.1250       HEAD DEP BOUNDS =        5499.8154

           TOTAL OUT =     1053625.1250             TOTAL OUT =        5599.8154

            IN - OUT =         -48.3750              IN - OUT =          -0.2915

 PERCENT DISCREPANCY =          -0.00     PERCENT DISCREPANCY =          -0.01






         TIME SUMMARY AT END OF TIME STEP   86 IN STRESS PERIOD    3
                    SECONDS     MINUTES      HOURS       DAYS        YEARS
                    -----------------------------------------------------------
   TIME STEP LENGTH  86400.      1440.0      24.000      1.0000     2.73785E-03
 STRESS PERIOD TIME 7.43040E+06 1.23840E+05  2064.0      86.000     0.23546    
         TOTAL TIME 1.61568E+07 2.69280E+05  4488.0      187.00     0.51198    
1

 SOLVING FOR HEAD 

 OUTPUT CONTROL FOR STRESS PERIOD    3   TIME STEP   87
    PRINT HEAD FOR ALL LAYERS
    SAVE HEAD FOR ALL LAYERS
    PRINT BUDGET
    SAVE BUDGET
1
              HEAD IN LAYER   1 AT END OF TIME STEP  87 IN STRESS PERIOD    3
  ---------------------------------------------------------------------------

            1           2           3           4           5           6           7           8           9          10
 ........................................................................................................................
   1    9.991       8.872       7.755       6.640       5.528       4.420       3.315       2.213       1.112      1.1006E-02
   2    9.991       8.871       7.753       6.636       5.523       4.416       3.313       2.211       1.111      1.1000E-02
   3    9.991       8.870       7.749       6.629       5.514       4.409       3.309       2.209       1.110      1.0991E-02
   4    9.991       8.868       7.743       6.618       5.493       4.398       3.303       2.207       1.109      1.0982E-02
   5    9.991       8.866       7.740       6.605       5.445       4.385       3.299       2.206       1.109      1.0978E-02
   6    9.991       8.868       7.744       6.619       5.494       4.399       3.304       2.207       1.109      1.0985E-02
   7    9.991       8.870       7.750       6.631       5.516       4.411       3.310       2.210       1.111      1.0998E-02
   8    9.991       8.873       7.755       6.639       5.527       4.420       3.316       2.213       1.112      1.1011E-02
   9    9.991       8.874       7.758       6.644       5.533       4.425       3.319       2.216       1.113      1.1021E-02
  10    9.991       8.875       7.760       6.647       5.535       4.427       3.321       2.217       1.114      1.1026E-02

 HEAD WILL BE SAVED ON UNIT   51 AT END OF TIME STEP   87, STRESS PERIOD    3
1
  VOLUMETRIC BUDGET FOR ENTIRE MODEL AT END OF TIME STEP   87, STRESS PERIOD   3
  ------------------------------------------------------------------------------

     CUMULATIVE VOLUMES      L**3       RATES FOR THIS TIME STEP      L**3/T
     ------------------                 ------------------------

           IN:                                      IN:
           ---                                      ---
             STORAGE =       25095.8281               STORAGE =           0.0000
       CONSTANT HEAD =           0.0000         CONSTANT HEAD =           0.0000
               WELLS =           0.0000                 WELLS =           0.0000
     HEAD DEP BOUNDS =     1034080.4375       HEAD DEP BOUNDS =        5599.5239

            TOTAL IN =     1059176.2500              TOTAL IN =        5599.5239

          OUT:                                     OUT:
          ----                                     ----
             STORAGE =           0.0000               STORAGE =           0.0000
       CONSTANT HEAD =           0.0000         CONSTANT HEAD =           0.0000
               WELLS =        8700.0000                 WELLS =         100.0000
     HEAD DEP BOUNDS =     1050525.0000       HEAD DEP BOUNDS =        5499.8154

           TOTAL OUT =     1059225.0000             TOTAL OUT =        5599.8154

            IN - OUT =         -48.7500              IN - OUT =          -0.2915

 PERCENT DISCREPANCY =          -0.00     PERCENT DISCREPANCY =          -0.01






         TIME SUMMARY AT END OF TIME STEP   87 IN STRESS PERIOD    3
                    SECONDS     MINUTES      HOURS       DAYS        YEARS
                    -----------------------------------------------------------
   TIME STEP LENGTH  86400.      1440.0      24.000      1.0000     2.73785E-03
 STRESS PERIOD TIME 7.51680E+06 1.25280E+05  2088.0      87.000     0.23819    
         TOTAL TIME 1.62432E+07 2.70720E+05  4512.0      188.00     0.51472    
1

 SOLVING FOR HEAD 

 OUTPUT CONTROL FOR STRESS PERIOD    3   TIME STEP   88
    PRINT HEAD FOR ALL LAYERS
    SAVE HEAD FOR ALL LAYERS
    PRINT BUDGET
    SAVE BUDGET
1
              HEAD IN LAYER   1 AT END OF TIME STEP  88 IN STRESS PERIOD    3
  ---------------------------------------------------------------------------

            1           2           3           4           5           6           7           8           9          10
 ........................................................................................................................
   1    9.991       8.872       7.755       6.640       5.528       4.420       3.315       2.213       1.112      1.1006E-02
   2    9.991       8.871       7.753       6.636       5.523       4.416       3.313       2.211       1.111      1.1000E-02
   3    9.991       8.870       7.749       6.629       5.514       4.409       3.309       2.209       1.110      1.0991E-02
   4    9.991       8.868       7.743       6.618       5.493       4.398       3.303       2.207       1.109      1.0982E-02
   5    9.991       8.866       7.740       6.605       5.445       4.385       3.299       2.206       1.109      1.0978E-02
   6    9.991       8.868       7.744       6.619       5.494       4.399       3.304       2.207       1.109      1.0985E-02
   7    9.991       8.870       7.750       6.631       5.516       4.411       3.310       2.210       1.111      1.0998E-02
   8    9.991       8.873       7.755       6.639       5.527       4.420       3.316       2.213       1.112      1.1011E-02
   9    9.991       8.874       7.758       6.644       5.533       4.425       3.319       2.216       1.113      1.1021E-02
  10    9.991       8.875       7.760       6.647       5.535       4.427       3.321       2.217       1.114      1.1026E-02

 HEAD WILL BE SAVED ON UNIT   51 AT END OF TIME STEP   88, STRESS PERIOD    3
1
  VOLUMETRIC BUDGET FOR ENTIRE MODEL AT END OF TIME STEP   88, STRESS PERIOD   3
  ------------------------------------------------------------------------------

     CUMULATIVE VOLUMES      L**3       RATES FOR THIS TIME STEP      L**3/T
     ------------------                 ------------------------

           IN:                                      IN:
           ---                                      ---
             STORAGE =       25095.8281               STORAGE =           0.0000
       CONSTANT HEAD =           0.0000         CONSTANT HEAD =           0.0000
               WELLS =           0.0000                 WELLS =           0.0000
     HEAD DEP BOUNDS =     1039679.9375       HEAD DEP BOUNDS =        5599.5239

            TOTAL IN =     1064775.7500              TOTAL IN =        5599.5239

          OUT:                                     OUT:
          ----                                     ----
             STORAGE =           0.0000               STORAGE =           0.0000
       CONSTANT HEAD =           0.0000         CONSTANT HEAD =           0.0000
               WELLS =        8800.0000                 WELLS =         100.0000
     HEAD DEP BOUNDS =     1056024.8750       HEAD DEP BOUNDS =        5499.8154

           TOTAL OUT =     1064824.8750             TOTAL OUT =        5599.8154

            IN - OUT =         -49.1250              IN - OUT =          -0.2915

 PERCENT DISCREPANCY =          -0.00     PERCENT DISCREPANCY =          -0.01






         TIME SUMMARY AT END OF TIME STEP   88 IN STRESS PERIOD    3
                    SECONDS     MINUTES      HOURS       DAYS        YEARS
                    -----------------------------------------------------------
   TIME STEP LENGTH  86400.      1440.0      24.000      1.0000     2.73785E-03
 STRESS PERIOD TIME 7.60320E+06 1.26720E+05  2112.0      88.000     0.24093    
         TOTAL TIME 1.63296E+07 2.72160E+05  4536.0      189.00     0.51745    
1

 SOLVING FOR HEAD 

 OUTPUT CONTROL FOR STRESS PERIOD    3   TIME STEP   89
    PRINT HEAD FOR ALL LAYERS
    SAVE HEAD FOR ALL LAYERS
    PRINT BUDGET
    SAVE BUDGET
1
              HEAD IN LAYER   1 AT END OF TIME STEP  89 IN STRESS PERIOD    3
  ---------------------------------------------------------------------------

            1           2           3           4           5           6           7           8           9          10
 ........................................................................................................................
   1    9.991       8.872       7.755       6.640       5.528       4.420       3.315       2.213       1.112      1.1006E-02
   2    9.991       8.871       7.753       6.636       5.523       4.416       3.313       2.211       1.111      1.1000E-02
   3    9.991       8.870       7.749       6.629       5.514       4.409       3.309       2.209       1.110      1.0991E-02
   4    9.991       8.868       7.743       6.618       5.493       4.398       3.303       2.207       1.109      1.0982E-02
   5    9.991       8.866       7.740       6.605       5.445       4.385       3.299       2.206       1.109      1.0978E-02
   6    9.991       8.868       7.744       6.619       5.494       4.399       3.304       2.207       1.109      1.0985E-02
   7    9.991       8.870       7.750       6.631       5.516       4.411       3.310       2.210       1.111      1.0998E-02
   8    9.991       8.873       7.755       6.639       5.527       4.420       3.316       2.213       1.112      1.1011E-02
   9    9.991       8.874       7.758       6.644       5.533       4.425       3.319       2.216       1.113      1.1021E-02
  10    9.991       8.875       7.760       6.647       5.535       4.427       3.321       2.217       1.114      1.1026E-02

 HEAD WILL BE SAVED ON UNIT   51 AT END OF TIME STEP   89, STRESS PERIOD    3
1
  VOLUMETRIC BUDGET FOR ENTIRE MODEL AT END OF TIME STEP   89, STRESS PERIOD   3
  ------------------------------------------------------------------------------

     CUMULATIVE VOLUMES      L**3       RATES FOR THIS TIME STEP      L**3/T
     ------------------                 ------------------------

           IN:                                      IN:
           ---                                      ---
             STORAGE =       25095.8281               STORAGE =           0.0000
       CONSTANT HEAD =           0.0000         CONSTANT HEAD =           0.0000
               WELLS =           0.0000                 WELLS =           0.0000
     HEAD DEP BOUNDS =     1045279.4375       HEAD DEP BOUNDS =        5599.5239

            TOTAL IN =     1070375.2500              TOTAL IN =        5599.5239

          OUT:                                     OUT:
          ----                                     ----
             STORAGE =           0.0000               STORAGE =           0.0000
       CONSTANT HEAD =           0.0000         CONSTANT HEAD =           0.0000
               WELLS =        8900.0000                 WELLS =         100.0000
     HEAD DEP BOUNDS =     1061524.7500       HEAD DEP BOUNDS =        5499.8154

           TOTAL OUT =     1070424.7500             TOTAL OUT =        5599.8154

            IN - OUT =         -49.5000              IN - OUT =          -0.2915

 PERCENT DISCREPANCY =          -0.00     PERCENT DISCREPANCY =          -0.01






         TIME SUMMARY AT END OF TIME STEP   89 IN STRESS PERIOD    3
                    SECONDS     MINUTES      HOURS       DAYS        YEARS
                    -----------------------------------------------------------
   TIME STEP LENGTH  86400.      1440.0      24.000      1.0000     2.73785E-03
 STRESS PERIOD TIME 7.68960E+06 1.28160E+05  2136.0      89.000     0.24367    
         TOTAL TIME 1.64160E+07 2.73600E+05  4560.0      190.00     0.52019    
1

 SOLVING FOR HEAD 

 OUTPUT CONTROL FOR STRESS PERIOD    3   TIME STEP   90
    PRINT HEAD FOR ALL LAYERS
    SAVE HEAD FOR ALL LAYERS
    PRINT BUDGET
    SAVE BUDGET
1
              HEAD IN LAYER   1 AT END OF TIME STEP  90 IN STRESS PERIOD    3
  ---------------------------------------------------------------------------

            1           2           3           4           5           6           7           8           9          10
 ........................................................................................................................
   1    9.991       8.872       7.755       6.640       5.528       4.420       3.315       2.213       1.112      1.1006E-02
   2    9.991       8.871       7.753       6.636       5.523       4.416       3.313       2.211       1.111      1.1000E-02
   3    9.991       8.870       7.749       6.629       5.514       4.409       3.309       2.209       1.110      1.0991E-02
   4    9.991       8.868       7.743       6.618       5.493       4.398       3.303       2.207       1.109      1.0982E-02
   5    9.991       8.866       7.740       6.605       5.445       4.385       3.299       2.206       1.109      1.0978E-02
   6    9.991       8.868       7.744       6.619       5.494       4.399       3.304       2.207       1.109      1.0985E-02
   7    9.991       8.870       7.750       6.631       5.516       4.411       3.310       2.210       1.111      1.0998E-02
   8    9.991       8.873       7.755       6.639       5.527       4.420       3.316       2.213       1.112      1.1011E-02
   9    9.991       8.874       7.758       6.644       5.533       4.425       3.319       2.216       1.113      1.1021E-02
  10    9.991       8.875       7.760       6.647       5.535       4.427       3.321       2.217       1.114      1.1026E-02

 HEAD WILL BE SAVED ON UNIT   51 AT END OF TIME STEP   90, STRESS PERIOD    3
1
  VOLUMETRIC BUDGET FOR ENTIRE MODEL AT END OF TIME STEP   90, STRESS PERIOD   3
  ------------------------------------------------------------------------------

     CUMULATIVE VOLUMES      L**3       RATES FOR THIS TIME STEP      L**3/T
     ------------------                 ------------------------

           IN:                                      IN:
           ---                                      ---
             STORAGE =       25095.8281               STORAGE =           0.0000
       CONSTANT HEAD =           0.0000         CONSTANT HEAD =           0.0000
               WELLS =           0.0000                 WELLS =           0.0000
     HEAD DEP BOUNDS =     1050879.0000       HEAD DEP BOUNDS =        5599.5239

            TOTAL IN =     1075974.8750              TOTAL IN =        5599.5239

          OUT:                                     OUT:
          ----                                     ----
             STORAGE =           0.0000               STORAGE =           0.0000
       CONSTANT HEAD =           0.0000         CONSTANT HEAD =           0.0000
               WELLS =        9000.0000                 WELLS =         100.0000
     HEAD DEP BOUNDS =     1067024.6250       HEAD DEP BOUNDS =        5499.8154

           TOTAL OUT =     1076024.6250             TOTAL OUT =        5599.8154

            IN - OUT =         -49.7500              IN - OUT =          -0.2915

 PERCENT DISCREPANCY =          -0.00     PERCENT DISCREPANCY =          -0.01






         TIME SUMMARY AT END OF TIME STEP   90 IN STRESS PERIOD    3
                    SECONDS     MINUTES      HOURS       DAYS        YEARS
                    -----------------------------------------------------------
   TIME STEP LENGTH  86400.      1440.0      24.000      1.0000     2.73785E-03
 STRESS PERIOD TIME 7.77600E+06 1.29600E+05  2160.0      90.000     0.24641    
         TOTAL TIME 1.65024E+07 2.75040E+05  4584.0      191.00     0.52293    
1

 SOLVING FOR HEAD 

 OUTPUT CONTROL FOR STRESS PERIOD    3   TIME STEP   91
    PRINT HEAD FOR ALL LAYERS
    SAVE HEAD FOR ALL LAYERS
    PRINT BUDGET
    SAVE BUDGET
1
              HEAD IN LAYER   1 AT END OF TIME STEP  91 IN STRESS PERIOD    3
  ---------------------------------------------------------------------------

            1           2           3           4           5           6           7           8           9          10
 ........................................................................................................................
   1    9.991       8.872       7.755       6.640       5.528       4.420       3.315       2.213       1.112      1.1006E-02
   2    9.991       8.871       7.753       6.636       5.523       4.416       3.313       2.211       1.111      1.1000E-02
   3    9.991       8.870       7.749       6.629       5.514       4.409       3.309       2.209       1.110      1.0991E-02
   4    9.991       8.868       7.743       6.618       5.493       4.398       3.303       2.207       1.109      1.0982E-02
   5    9.991       8.866       7.740       6.605       5.445       4.385       3.299       2.206       1.109      1.0978E-02
   6    9.991       8.868       7.744       6.619       5.494       4.399       3.304       2.207       1.109      1.0985E-02
   7    9.991       8.870       7.750       6.631       5.516       4.411       3.310       2.210       1.111      1.0998E-02
   8    9.991       8.873       7.755       6.639       5.527       4.420       3.316       2.213       1.112      1.1011E-02
   9    9.991       8.874       7.758       6.644       5.533       4.425       3.319       2.216       1.113      1.1021E-02
  10    9.991       8.875       7.760       6.647       5.535       4.427       3.321       2.217       1.114      1.1026E-02

 HEAD WILL BE SAVED ON UNIT   51 AT END OF TIME STEP   91, STRESS PERIOD    3
1
  VOLUMETRIC BUDGET FOR ENTIRE MODEL AT END OF TIME STEP   91, STRESS PERIOD   3
  ------------------------------------------------------------------------------

     CUMULATIVE VOLUMES      L**3       RATES FOR THIS TIME STEP      L**3/T
     ------------------                 ------------------------

           IN:                                      IN:
           ---                                      ---
             STORAGE =       25095.8281               STORAGE =           0.0000
       CONSTANT HEAD =           0.0000         CONSTANT HEAD =           0.0000
               WELLS =           0.0000                 WELLS =           0.0000
     HEAD DEP BOUNDS =     1056478.5000       HEAD DEP BOUNDS =        5599.5239

            TOTAL IN =     1081574.3750              TOTAL IN =        5599.5239

          OUT:                                     OUT:
          ----                                     ----
             STORAGE =           0.0000               STORAGE =           0.0000
       CONSTANT HEAD =           0.0000         CONSTANT HEAD =           0.0000
               WELLS =        9100.0000                 WELLS =         100.0000
     HEAD DEP BOUNDS =     1072524.5000       HEAD DEP BOUNDS =        5499.8154

           TOTAL OUT =     1081624.5000             TOTAL OUT =        5599.8154

            IN - OUT =         -50.1250              IN - OUT =          -0.2915

 PERCENT DISCREPANCY =          -0.00     PERCENT DISCREPANCY =          -0.01






         TIME SUMMARY AT END OF TIME STEP   91 IN STRESS PERIOD    3
                    SECONDS     MINUTES      HOURS       DAYS        YEARS
                    -----------------------------------------------------------
   TIME STEP LENGTH  86400.      1440.0      24.000      1.0000     2.73785E-03
 STRESS PERIOD TIME 7.86240E+06 1.31040E+05  2184.0      91.000     0.24914    
         TOTAL TIME 1.65888E+07 2.76480E+05  4608.0      192.00     0.52567    
1

 SOLVING FOR HEAD 

 OUTPUT CONTROL FOR STRESS PERIOD    3   TIME STEP   92
    PRINT HEAD FOR ALL LAYERS
    SAVE HEAD FOR ALL LAYERS
    PRINT BUDGET
    SAVE BUDGET
1
              HEAD IN LAYER   1 AT END OF TIME STEP  92 IN STRESS PERIOD    3
  ---------------------------------------------------------------------------

            1           2           3           4           5           6           7           8           9          10
 ........................................................................................................................
   1    9.991       8.872       7.755       6.640       5.528       4.420       3.315       2.213       1.112      1.1006E-02
   2    9.991       8.871       7.753       6.636       5.523       4.416       3.313       2.211       1.111      1.1000E-02
   3    9.991       8.870       7.749       6.629       5.514       4.409       3.309       2.209       1.110      1.0991E-02
   4    9.991       8.868       7.743       6.618       5.493       4.398       3.303       2.207       1.109      1.0982E-02
   5    9.991       8.866       7.740       6.605       5.445       4.385       3.299       2.206       1.109      1.0978E-02
   6    9.991       8.868       7.744       6.619       5.494       4.399       3.304       2.207       1.109      1.0985E-02
   7    9.991       8.870       7.750       6.631       5.516       4.411       3.310       2.210       1.111      1.0998E-02
   8    9.991       8.873       7.755       6.639       5.527       4.420       3.316       2.213       1.112      1.1011E-02
   9    9.991       8.874       7.758       6.644       5.533       4.425       3.319       2.216       1.113      1.1021E-02
  10    9.991       8.875       7.760       6.647       5.535       4.427       3.321       2.217       1.114      1.1026E-02

 HEAD WILL BE SAVED ON UNIT   51 AT END OF TIME STEP   92, STRESS PERIOD    3
1
  VOLUMETRIC BUDGET FOR ENTIRE MODEL AT END OF TIME STEP   92, STRESS PERIOD   3
  ------------------------------------------------------------------------------

     CUMULATIVE VOLUMES      L**3       RATES FOR THIS TIME STEP      L**3/T
     ------------------                 ------------------------

           IN:                                      IN:
           ---                                      ---
             STORAGE =       25095.8281               STORAGE =           0.0000
       CONSTANT HEAD =           0.0000         CONSTANT HEAD =           0.0000
               WELLS =           0.0000                 WELLS =           0.0000
     HEAD DEP BOUNDS =     1062078.0000       HEAD DEP BOUNDS =        5599.5239

            TOTAL IN =     1087173.8750              TOTAL IN =        5599.5239

          OUT:                                     OUT:
          ----                                     ----
             STORAGE =           0.0000               STORAGE =           0.0000
       CONSTANT HEAD =           0.0000         CONSTANT HEAD =           0.0000
               WELLS =        9200.0000                 WELLS =         100.0000
     HEAD DEP BOUNDS =     1078024.3750       HEAD DEP BOUNDS =        5499.8154

           TOTAL OUT =     1087224.3750             TOTAL OUT =        5599.8154

            IN - OUT =         -50.5000              IN - OUT =          -0.2915

 PERCENT DISCREPANCY =          -0.00     PERCENT DISCREPANCY =          -0.01






         TIME SUMMARY AT END OF TIME STEP   92 IN STRESS PERIOD    3
                    SECONDS     MINUTES      HOURS       DAYS        YEARS
                    -----------------------------------------------------------
   TIME STEP LENGTH  86400.      1440.0      24.000      1.0000     2.73785E-03
 STRESS PERIOD TIME 7.94880E+06 1.32480E+05  2208.0      92.000     0.25188    
         TOTAL TIME 1.66752E+07 2.77920E+05  4632.0      193.00     0.52841    
1

 SOLVING FOR HEAD 

 OUTPUT CONTROL FOR STRESS PERIOD    3   TIME STEP   93
    PRINT HEAD FOR ALL LAYERS
    SAVE HEAD FOR ALL LAYERS
    PRINT BUDGET
    SAVE BUDGET
1
              HEAD IN LAYER   1 AT END OF TIME STEP  93 IN STRESS PERIOD    3
  ---------------------------------------------------------------------------

            1           2           3           4           5           6           7           8           9          10
 ........................................................................................................................
   1    9.991       8.872       7.755       6.640       5.528       4.420       3.315       2.213       1.112      1.1006E-02
   2    9.991       8.871       7.753       6.636       5.523       4.416       3.313       2.211       1.111      1.1000E-02
   3    9.991       8.870       7.749       6.629       5.514       4.409       3.309       2.209       1.110      1.0991E-02
   4    9.991       8.868       7.743       6.618       5.493       4.398       3.303       2.207       1.109      1.0982E-02
   5    9.991       8.866       7.740       6.605       5.445       4.385       3.299       2.206       1.109      1.0978E-02
   6    9.991       8.868       7.744       6.619       5.494       4.399       3.304       2.207       1.109      1.0985E-02
   7    9.991       8.870       7.750       6.631       5.516       4.411       3.310       2.210       1.111      1.0998E-02
   8    9.991       8.873       7.755       6.639       5.527       4.420       3.316       2.213       1.112      1.1011E-02
   9    9.991       8.874       7.758       6.644       5.533       4.425       3.319       2.216       1.113      1.1021E-02
  10    9.991       8.875       7.760       6.647       5.535       4.427       3.321       2.217       1.114      1.1026E-02

 HEAD WILL BE SAVED ON UNIT   51 AT END OF TIME STEP   93, STRESS PERIOD    3
1
  VOLUMETRIC BUDGET FOR ENTIRE MODEL AT END OF TIME STEP   93, STRESS PERIOD   3
  ------------------------------------------------------------------------------

     CUMULATIVE VOLUMES      L**3       RATES FOR THIS TIME STEP      L**3/T
     ------------------                 ------------------------

           IN:                                      IN:
           ---                                      ---
             STORAGE =       25095.8281               STORAGE =           0.0000
       CONSTANT HEAD =           0.0000         CONSTANT HEAD =           0.0000
               WELLS =           0.0000                 WELLS =           0.0000
     HEAD DEP BOUNDS =     1067677.5000       HEAD DEP BOUNDS =        5599.5239

            TOTAL IN =     1092773.3750              TOTAL IN =        5599.5239

          OUT:                                     OUT:
          ----                                     ----
             STORAGE =           0.0000               STORAGE =           0.0000
       CONSTANT HEAD =           0.0000         CONSTANT HEAD =           0.0000
               WELLS =        9300.0000                 WELLS =         100.0000
     HEAD DEP BOUNDS =     1083524.2500       HEAD DEP BOUNDS =        5499.8154

           TOTAL OUT =     1092824.2500             TOTAL OUT =        5599.8154

            IN - OUT =         -50.8750              IN - OUT =          -0.2915

 PERCENT DISCREPANCY =          -0.00     PERCENT DISCREPANCY =          -0.01






         TIME SUMMARY AT END OF TIME STEP   93 IN STRESS PERIOD    3
                    SECONDS     MINUTES      HOURS       DAYS        YEARS
                    -----------------------------------------------------------
   TIME STEP LENGTH  86400.      1440.0      24.000      1.0000     2.73785E-03
 STRESS PERIOD TIME 8.03520E+06 1.33920E+05  2232.0      93.000     0.25462    
         TOTAL TIME 1.67616E+07 2.79360E+05  4656.0      194.00     0.53114    
1

 SOLVING FOR HEAD 

 OUTPUT CONTROL FOR STRESS PERIOD    3   TIME STEP   94
    PRINT HEAD FOR ALL LAYERS
    SAVE HEAD FOR ALL LAYERS
    PRINT BUDGET
    SAVE BUDGET
1
              HEAD IN LAYER   1 AT END OF TIME STEP  94 IN STRESS PERIOD    3
  ---------------------------------------------------------------------------

            1           2           3           4           5           6           7           8           9          10
 ........................................................................................................................
   1    9.991       8.872       7.755       6.640       5.528       4.420       3.315       2.213       1.112      1.1006E-02
   2    9.991       8.871       7.753       6.636       5.523       4.416       3.313       2.211       1.111      1.1000E-02
   3    9.991       8.870       7.749       6.629       5.514       4.409       3.309       2.209       1.110      1.0991E-02
   4    9.991       8.868       7.743       6.618       5.493       4.398       3.303       2.207       1.109      1.0982E-02
   5    9.991       8.866       7.740       6.605       5.445       4.385       3.299       2.206       1.109      1.0978E-02
   6    9.991       8.868       7.744       6.619       5.494       4.399       3.304       2.207       1.109      1.0985E-02
   7    9.991       8.870       7.750       6.631       5.516       4.411       3.310       2.210       1.111      1.0998E-02
   8    9.991       8.873       7.755       6.639       5.527       4.420       3.316       2.213       1.112      1.1011E-02
   9    9.991       8.874       7.758       6.644       5.533       4.425       3.319       2.216       1.113      1.1021E-02
  10    9.991       8.875       7.760       6.647       5.535       4.427       3.321       2.217       1.114      1.1026E-02

 HEAD WILL BE SAVED ON UNIT   51 AT END OF TIME STEP   94, STRESS PERIOD    3
1
  VOLUMETRIC BUDGET FOR ENTIRE MODEL AT END OF TIME STEP   94, STRESS PERIOD   3
  ------------------------------------------------------------------------------

     CUMULATIVE VOLUMES      L**3       RATES FOR THIS TIME STEP      L**3/T
     ------------------                 ------------------------

           IN:                                      IN:
           ---                                      ---
             STORAGE =       25095.8281               STORAGE =           0.0000
       CONSTANT HEAD =           0.0000         CONSTANT HEAD =           0.0000
               WELLS =           0.0000                 WELLS =           0.0000
     HEAD DEP BOUNDS =     1073277.0000       HEAD DEP BOUNDS =        5599.5239

            TOTAL IN =     1098372.8750              TOTAL IN =        5599.5239

          OUT:                                     OUT:
          ----                                     ----
             STORAGE =           0.0000               STORAGE =           0.0000
       CONSTANT HEAD =           0.0000         CONSTANT HEAD =           0.0000
               WELLS =        9400.0000                 WELLS =         100.0000
     HEAD DEP BOUNDS =     1089024.1250       HEAD DEP BOUNDS =        5499.8154

           TOTAL OUT =     1098424.1250             TOTAL OUT =        5599.8154

            IN - OUT =         -51.2500              IN - OUT =          -0.2915

 PERCENT DISCREPANCY =          -0.00     PERCENT DISCREPANCY =          -0.01






         TIME SUMMARY AT END OF TIME STEP   94 IN STRESS PERIOD    3
                    SECONDS     MINUTES      HOURS       DAYS        YEARS
                    -----------------------------------------------------------
   TIME STEP LENGTH  86400.      1440.0      24.000      1.0000     2.73785E-03
 STRESS PERIOD TIME 8.12160E+06 1.35360E+05  2256.0      94.000     0.25736    
         TOTAL TIME 1.68480E+07 2.80800E+05  4680.0      195.00     0.53388    
1

 SOLVING FOR HEAD 

 OUTPUT CONTROL FOR STRESS PERIOD    3   TIME STEP   95
    PRINT HEAD FOR ALL LAYERS
    SAVE HEAD FOR ALL LAYERS
    PRINT BUDGET
    SAVE BUDGET
1
              HEAD IN LAYER   1 AT END OF TIME STEP  95 IN STRESS PERIOD    3
  ---------------------------------------------------------------------------

            1           2           3           4           5           6           7           8           9          10
 ........................................................................................................................
   1    9.991       8.872       7.755       6.640       5.528       4.420       3.315       2.213       1.112      1.1006E-02
   2    9.991       8.871       7.753       6.636       5.523       4.416       3.313       2.211       1.111      1.1000E-02
   3    9.991       8.870       7.749       6.629       5.514       4.409       3.309       2.209       1.110      1.0991E-02
   4    9.991       8.868       7.743       6.618       5.493       4.398       3.303       2.207       1.109      1.0982E-02
   5    9.991       8.866       7.740       6.605       5.445       4.385       3.299       2.206       1.109      1.0978E-02
   6    9.991       8.868       7.744       6.619       5.494       4.399       3.304       2.207       1.109      1.0985E-02
   7    9.991       8.870       7.750       6.631       5.516       4.411       3.310       2.210       1.111      1.0998E-02
   8    9.991       8.873       7.755       6.639       5.527       4.420       3.316       2.213       1.112      1.1011E-02
   9    9.991       8.874       7.758       6.644       5.533       4.425       3.319       2.216       1.113      1.1021E-02
  10    9.991       8.875       7.760       6.647       5.535       4.427       3.321       2.217       1.114      1.1026E-02

 HEAD WILL BE SAVED ON UNIT   51 AT END OF TIME STEP   95, STRESS PERIOD    3
1
  VOLUMETRIC BUDGET FOR ENTIRE MODEL AT END OF TIME STEP   95, STRESS PERIOD   3
  ------------------------------------------------------------------------------

     CUMULATIVE VOLUMES      L**3       RATES FOR THIS TIME STEP      L**3/T
     ------------------                 ------------------------

           IN:                                      IN:
           ---                                      ---
             STORAGE =       25095.8281               STORAGE =           0.0000
       CONSTANT HEAD =           0.0000         CONSTANT HEAD =           0.0000
               WELLS =           0.0000                 WELLS =           0.0000
     HEAD DEP BOUNDS =     1078876.5000       HEAD DEP BOUNDS =        5599.5239

            TOTAL IN =     1103972.3750              TOTAL IN =        5599.5239

          OUT:                                     OUT:
          ----                                     ----
             STORAGE =           0.0000               STORAGE =           0.0000
       CONSTANT HEAD =           0.0000         CONSTANT HEAD =           0.0000
               WELLS =        9500.0000                 WELLS =         100.0000
     HEAD DEP BOUNDS =     1094524.0000       HEAD DEP BOUNDS =        5499.8154

           TOTAL OUT =     1104024.0000             TOTAL OUT =        5599.8154

            IN - OUT =         -51.6250              IN - OUT =          -0.2915

 PERCENT DISCREPANCY =          -0.00     PERCENT DISCREPANCY =          -0.01






         TIME SUMMARY AT END OF TIME STEP   95 IN STRESS PERIOD    3
                    SECONDS     MINUTES      HOURS       DAYS        YEARS
                    -----------------------------------------------------------
   TIME STEP LENGTH  86400.      1440.0      24.000      1.0000     2.73785E-03
 STRESS PERIOD TIME 8.20800E+06 1.36800E+05  2280.0      95.000     0.26010    
         TOTAL TIME 1.69344E+07 2.82240E+05  4704.0      196.00     0.53662    
1

 SOLVING FOR HEAD 

 OUTPUT CONTROL FOR STRESS PERIOD    3   TIME STEP   96
    PRINT HEAD FOR ALL LAYERS
    SAVE HEAD FOR ALL LAYERS
    PRINT BUDGET
    SAVE BUDGET
1
              HEAD IN LAYER   1 AT END OF TIME STEP  96 IN STRESS PERIOD    3
  ---------------------------------------------------------------------------

            1           2           3           4           5           6           7           8           9          10
 ........................................................................................................................
   1    9.991       8.872       7.755       6.640       5.528       4.420       3.315       2.213       1.112      1.1006E-02
   2    9.991       8.871       7.753       6.636       5.523       4.416       3.313       2.211       1.111      1.1000E-02
   3    9.991       8.870       7.749       6.629       5.514       4.409       3.309       2.209       1.110      1.0991E-02
   4    9.991       8.868       7.743       6.618       5.493       4.398       3.303       2.207       1.109      1.0982E-02
   5    9.991       8.866       7.740       6.605       5.445       4.385       3.299       2.206       1.109      1.0978E-02
   6    9.991       8.868       7.744       6.619       5.494       4.399       3.304       2.207       1.109      1.0985E-02
   7    9.991       8.870       7.750       6.631       5.516       4.411       3.310       2.210       1.111      1.0998E-02
   8    9.991       8.873       7.755       6.639       5.527       4.420       3.316       2.213       1.112      1.1011E-02
   9    9.991       8.874       7.758       6.644       5.533       4.425       3.319       2.216       1.113      1.1021E-02
  10    9.991       8.875       7.760       6.647       5.535       4.427       3.321       2.217       1.114      1.1026E-02

 HEAD WILL BE SAVED ON UNIT   51 AT END OF TIME STEP   96, STRESS PERIOD    3
1
  VOLUMETRIC BUDGET FOR ENTIRE MODEL AT END OF TIME STEP   96, STRESS PERIOD   3
  ------------------------------------------------------------------------------

     CUMULATIVE VOLUMES      L**3       RATES FOR THIS TIME STEP      L**3/T
     ------------------                 ------------------------

           IN:                                      IN:
           ---                                      ---
             STORAGE =       25095.8281               STORAGE =           0.0000
       CONSTANT HEAD =           0.0000         CONSTANT HEAD =           0.0000
               WELLS =           0.0000                 WELLS =           0.0000
     HEAD DEP BOUNDS =     1084476.0000       HEAD DEP BOUNDS =        5599.5239

            TOTAL IN =     1109571.8750              TOTAL IN =        5599.5239

          OUT:                                     OUT:
          ----                                     ----
             STORAGE =           0.0000               STORAGE =           0.0000
       CONSTANT HEAD =           0.0000         CONSTANT HEAD =           0.0000
               WELLS =        9600.0000                 WELLS =         100.0000
     HEAD DEP BOUNDS =     1100023.8750       HEAD DEP BOUNDS =        5499.8154

           TOTAL OUT =     1109623.8750             TOTAL OUT =        5599.8154

            IN - OUT =         -52.0000              IN - OUT =          -0.2915

 PERCENT DISCREPANCY =          -0.00     PERCENT DISCREPANCY =          -0.01






         TIME SUMMARY AT END OF TIME STEP   96 IN STRESS PERIOD    3
                    SECONDS     MINUTES      HOURS       DAYS        YEARS
                    -----------------------------------------------------------
   TIME STEP LENGTH  86400.      1440.0      24.000      1.0000     2.73785E-03
 STRESS PERIOD TIME 8.29440E+06 1.38240E+05  2304.0      96.000     0.26283    
         TOTAL TIME 1.70208E+07 2.83680E+05  4728.0      197.00     0.53936    
1

 SOLVING FOR HEAD 

 OUTPUT CONTROL FOR STRESS PERIOD    3   TIME STEP   97
    PRINT HEAD FOR ALL LAYERS
    SAVE HEAD FOR ALL LAYERS
    PRINT BUDGET
    SAVE BUDGET
1
              HEAD IN LAYER   1 AT END OF TIME STEP  97 IN STRESS PERIOD    3
  ---------------------------------------------------------------------------

            1           2           3           4           5           6           7           8           9          10
 ........................................................................................................................
   1    9.991       8.872       7.755       6.640       5.528       4.420       3.315       2.213       1.112      1.1006E-02
   2    9.991       8.871       7.753       6.636       5.523       4.416       3.313       2.211       1.111      1.1000E-02
   3    9.991       8.870       7.749       6.629       5.514       4.409       3.309       2.209       1.110      1.0991E-02
   4    9.991       8.868       7.743       6.618       5.493       4.398       3.303       2.207       1.109      1.0982E-02
   5    9.991       8.866       7.740       6.605       5.445       4.385       3.299       2.206       1.109      1.0978E-02
   6    9.991       8.868       7.744       6.619       5.494       4.399       3.304       2.207       1.109      1.0985E-02
   7    9.991       8.870       7.750       6.631       5.516       4.411       3.310       2.210       1.111      1.0998E-02
   8    9.991       8.873       7.755       6.639       5.527       4.420       3.316       2.213       1.112      1.1011E-02
   9    9.991       8.874       7.758       6.644       5.533       4.425       3.319       2.216       1.113      1.1021E-02
  10    9.991       8.875       7.760       6.647       5.535       4.427       3.321       2.217       1.114      1.1026E-02

 HEAD WILL BE SAVED ON UNIT   51 AT END OF TIME STEP   97, STRESS PERIOD    3
1
  VOLUMETRIC BUDGET FOR ENTIRE MODEL AT END OF TIME STEP   97, STRESS PERIOD   3
  ------------------------------------------------------------------------------

     CUMULATIVE VOLUMES      L**3       RATES FOR THIS TIME STEP      L**3/T
     ------------------                 ------------------------

           IN:                                      IN:
           ---                                      ---
             STORAGE =       25095.8281               STORAGE =           0.0000
       CONSTANT HEAD =           0.0000         CONSTANT HEAD =           0.0000
               WELLS =           0.0000                 WELLS =           0.0000
     HEAD DEP BOUNDS =     1090075.5000       HEAD DEP BOUNDS =        5599.5239

            TOTAL IN =     1115171.3750              TOTAL IN =        5599.5239

          OUT:                                     OUT:
          ----                                     ----
             STORAGE =           0.0000               STORAGE =           0.0000
       CONSTANT HEAD =           0.0000         CONSTANT HEAD =           0.0000
               WELLS =        9700.0000                 WELLS =         100.0000
     HEAD DEP BOUNDS =     1105523.7500       HEAD DEP BOUNDS =        5499.8154

           TOTAL OUT =     1115223.7500             TOTAL OUT =        5599.8154

            IN - OUT =         -52.3750              IN - OUT =          -0.2915

 PERCENT DISCREPANCY =          -0.00     PERCENT DISCREPANCY =          -0.01






         TIME SUMMARY AT END OF TIME STEP   97 IN STRESS PERIOD    3
                    SECONDS     MINUTES      HOURS       DAYS        YEARS
                    -----------------------------------------------------------
   TIME STEP LENGTH  86400.      1440.0      24.000      1.0000     2.73785E-03
 STRESS PERIOD TIME 8.38080E+06 1.39680E+05  2328.0      97.000     0.26557    
         TOTAL TIME 1.71072E+07 2.85120E+05  4752.0      198.00     0.54209    
1

 SOLVING FOR HEAD 

 OUTPUT CONTROL FOR STRESS PERIOD    3   TIME STEP   98
    PRINT HEAD FOR ALL LAYERS
    SAVE HEAD FOR ALL LAYERS
    PRINT BUDGET
    SAVE BUDGET
1
              HEAD IN LAYER   1 AT END OF TIME STEP  98 IN STRESS PERIOD    3
  ---------------------------------------------------------------------------

            1           2           3           4           5           6           7           8           9          10
 ........................................................................................................................
   1    9.991       8.872       7.755       6.640       5.528       4.420       3.315       2.213       1.112      1.1006E-02
   2    9.991       8.871       7.753       6.636       5.523       4.416       3.313       2.211       1.111      1.1000E-02
   3    9.991       8.870       7.749       6.629       5.514       4.409       3.309       2.209       1.110      1.0991E-02
   4    9.991       8.868       7.743       6.618       5.493       4.398       3.303       2.207       1.109      1.0982E-02
   5    9.991       8.866       7.740       6.605       5.445       4.385       3.299       2.206       1.109      1.0978E-02
   6    9.991       8.868       7.744       6.619       5.494       4.399       3.304       2.207       1.109      1.0985E-02
   7    9.991       8.870       7.750       6.631       5.516       4.411       3.310       2.210       1.111      1.0998E-02
   8    9.991       8.873       7.755       6.639       5.527       4.420       3.316       2.213       1.112      1.1011E-02
   9    9.991       8.874       7.758       6.644       5.533       4.425       3.319       2.216       1.113      1.1021E-02
  10    9.991       8.875       7.760       6.647       5.535       4.427       3.321       2.217       1.114      1.1026E-02

 HEAD WILL BE SAVED ON UNIT   51 AT END OF TIME STEP   98, STRESS PERIOD    3
1
  VOLUMETRIC BUDGET FOR ENTIRE MODEL AT END OF TIME STEP   98, STRESS PERIOD   3
  ------------------------------------------------------------------------------

     CUMULATIVE VOLUMES      L**3       RATES FOR THIS TIME STEP      L**3/T
     ------------------                 ------------------------

           IN:                                      IN:
           ---                                      ---
             STORAGE =       25095.8281               STORAGE =           0.0000
       CONSTANT HEAD =           0.0000         CONSTANT HEAD =           0.0000
               WELLS =           0.0000                 WELLS =           0.0000
     HEAD DEP BOUNDS =     1095675.0000       HEAD DEP BOUNDS =        5599.5239

            TOTAL IN =     1120770.8750              TOTAL IN =        5599.5239

          OUT:                                     OUT:
          ----                                     ----
             STORAGE =           0.0000               STORAGE =           0.0000
       CONSTANT HEAD =           0.0000         CONSTANT HEAD =           0.0000
               WELLS =        9800.0000                 WELLS =         100.0000
     HEAD DEP BOUNDS =     1111023.6250       HEAD DEP BOUNDS =        5499.8154

           TOTAL OUT =     1120823.6250             TOTAL OUT =        5599.8154

            IN - OUT =         -52.7500              IN - OUT =          -0.2915

 PERCENT DISCREPANCY =          -0.00     PERCENT DISCREPANCY =          -0.01






         TIME SUMMARY AT END OF TIME STEP   98 IN STRESS PERIOD    3
                    SECONDS     MINUTES      HOURS       DAYS        YEARS
                    -----------------------------------------------------------
   TIME STEP LENGTH  86400.      1440.0      24.000      1.0000     2.73785E-03
 STRESS PERIOD TIME 8.46720E+06 1.41120E+05  2352.0      98.000     0.26831    
         TOTAL TIME 1.71936E+07 2.86560E+05  4776.0      199.00     0.54483    
1

 SOLVING FOR HEAD 

 OUTPUT CONTROL FOR STRESS PERIOD    3   TIME STEP   99
    PRINT HEAD FOR ALL LAYERS
    SAVE HEAD FOR ALL LAYERS
    PRINT BUDGET
    SAVE BUDGET
1
              HEAD IN LAYER   1 AT END OF TIME STEP  99 IN STRESS PERIOD    3
  ---------------------------------------------------------------------------

            1           2           3           4           5           6           7           8           9          10
 ........................................................................................................................
   1    9.991       8.872       7.755       6.640       5.528       4.420       3.315       2.213       1.112      1.1006E-02
   2    9.991       8.871       7.753       6.636       5.523       4.416       3.313       2.211       1.111      1.1000E-02
   3    9.991       8.870       7.749       6.629       5.514       4.409       3.309       2.209       1.110      1.0991E-02
   4    9.991       8.868       7.743       6.618       5.493       4.398       3.303       2.207       1.109      1.0982E-02
   5    9.991       8.866       7.740       6.605       5.445       4.385       3.299       2.206       1.109      1.0978E-02
   6    9.991       8.868       7.744       6.619       5.494       4.399       3.304       2.207       1.109      1.0985E-02
   7    9.991       8.870       7.750       6.631       5.516       4.411       3.310       2.210       1.111      1.0998E-02
   8    9.991       8.873       7.755       6.639       5.527       4.420       3.316       2.213       1.112      1.1011E-02
   9    9.991       8.874       7.758       6.644       5.533       4.425       3.319       2.216       1.113      1.1021E-02
  10    9.991       8.875       7.760       6.647       5.535       4.427       3.321       2.217       1.114      1.1026E-02

 HEAD WILL BE SAVED ON UNIT   51 AT END OF TIME STEP   99, STRESS PERIOD    3
1
  VOLUMETRIC BUDGET FOR ENTIRE MODEL AT END OF TIME STEP   99, STRESS PERIOD   3
  ------------------------------------------------------------------------------

     CUMULATIVE VOLUMES      L**3       RATES FOR THIS TIME STEP      L**3/T
     ------------------                 ------------------------

           IN:                                      IN:
           ---                                      ---
             STORAGE =       25095.8281               STORAGE =           0.0000
       CONSTANT HEAD =           0.0000         CONSTANT HEAD =           0.0000
               WELLS =           0.0000                 WELLS =           0.0000
     HEAD DEP BOUNDS =     1101274.5000       HEAD DEP BOUNDS =        5599.5239

            TOTAL IN =     1126370.3750              TOTAL IN =        5599.5239

          OUT:                                     OUT:
          ----                                     ----
             STORAGE =           0.0000               STORAGE =           0.0000
       CONSTANT HEAD =           0.0000         CONSTANT HEAD =           0.0000
               WELLS =        9900.0000                 WELLS =         100.0000
     HEAD DEP BOUNDS =     1116523.5000       HEAD DEP BOUNDS =        5499.8154

           TOTAL OUT =     1126423.5000             TOTAL OUT =        5599.8154

            IN - OUT =         -53.1250              IN - OUT =          -0.2915

 PERCENT DISCREPANCY =          -0.00     PERCENT DISCREPANCY =          -0.01






         TIME SUMMARY AT END OF TIME STEP   99 IN STRESS PERIOD    3
                    SECONDS     MINUTES      HOURS       DAYS        YEARS
                    -----------------------------------------------------------
   TIME STEP LENGTH  86400.      1440.0      24.000      1.0000     2.73785E-03
 STRESS PERIOD TIME 8.55360E+06 1.42560E+05  2376.0      99.000     0.27105    
         TOTAL TIME 1.72800E+07 2.88000E+05  4800.0      200.00     0.54757    
1

 SOLVING FOR HEAD 

 OUTPUT CONTROL FOR STRESS PERIOD    3   TIME STEP  100
    PRINT HEAD FOR ALL LAYERS
    SAVE HEAD FOR ALL LAYERS
    PRINT BUDGET
    SAVE BUDGET
1
              HEAD IN LAYER   1 AT END OF TIME STEP 100 IN STRESS PERIOD    3
  ---------------------------------------------------------------------------

            1           2           3           4           5           6           7           8           9          10
 ........................................................................................................................
   1    9.991       8.872       7.755       6.640       5.528       4.420       3.315       2.213       1.112      1.1006E-02
   2    9.991       8.871       7.753       6.636       5.523       4.416       3.313       2.211       1.111      1.1000E-02
   3    9.991       8.870       7.749       6.629       5.514       4.409       3.309       2.209       1.110      1.0991E-02
   4    9.991       8.868       7.743       6.618       5.493       4.398       3.303       2.207       1.109      1.0982E-02
   5    9.991       8.866       7.740       6.605       5.445       4.385       3.299       2.206       1.109      1.0978E-02
   6    9.991       8.868       7.744       6.619       5.494       4.399       3.304       2.207       1.109      1.0985E-02
   7    9.991       8.870       7.750       6.631       5.516       4.411       3.310       2.210       1.111      1.0998E-02
   8    9.991       8.873       7.755       6.639       5.527       4.420       3.316       2.213       1.112      1.1011E-02
   9    9.991       8.874       7.758       6.644       5.533       4.425       3.319       2.216       1.113      1.1021E-02
  10    9.991       8.875       7.760       6.647       5.535       4.427       3.321       2.217       1.114      1.1026E-02

 HEAD WILL BE SAVED ON UNIT   51 AT END OF TIME STEP  100, STRESS PERIOD    3
1
  VOLUMETRIC BUDGET FOR ENTIRE MODEL AT END OF TIME STEP  100, STRESS PERIOD   3
  ------------------------------------------------------------------------------

     CUMULATIVE VOLUMES      L**3       RATES FOR THIS TIME STEP      L**3/T
     ------------------                 ------------------------

           IN:                                      IN:
           ---                                      ---
             STORAGE =       25095.8281               STORAGE =           0.0000
       CONSTANT HEAD =           0.0000         CONSTANT HEAD =           0.0000
               WELLS =           0.0000                 WELLS =           0.0000
     HEAD DEP BOUNDS =     1106874.0000       HEAD DEP BOUNDS =        5599.5239

            TOTAL IN =     1131969.8750              TOTAL IN =        5599.5239

          OUT:                                     OUT:
          ----                                     ----
             STORAGE =           0.0000               STORAGE =           0.0000
       CONSTANT HEAD =           0.0000         CONSTANT HEAD =           0.0000
               WELLS =       10000.0000                 WELLS =         100.0000
     HEAD DEP BOUNDS =     1122023.3750       HEAD DEP BOUNDS =        5499.8154

           TOTAL OUT =     1132023.3750             TOTAL OUT =        5599.8154

            IN - OUT =         -53.5000              IN - OUT =          -0.2915

 PERCENT DISCREPANCY =          -0.00     PERCENT DISCREPANCY =          -0.01






         TIME SUMMARY AT END OF TIME STEP  100 IN STRESS PERIOD    3
                    SECONDS     MINUTES      HOURS       DAYS        YEARS
                    -----------------------------------------------------------
   TIME STEP LENGTH  86400.      1440.0      24.000      1.0000     2.73785E-03
 STRESS PERIOD TIME 8.64000E+06 1.44000E+05  2400.0      100.00     0.27379    
         TOTAL TIME 1.73664E+07 2.89440E+05  4824.0      201.00     0.55031    
1

 Run end date and time (yyyy/mm/dd hh:mm:ss): 2017/11/17 12:05:51
 Elapsed run time:  0.122 Seconds

